<NUMBER OF ZONES> 191
<TOTAL OD FLOW> 652945
<END OF METADATA>


Origin  T_J1
    T_J10 :    15.0;    T_J101 :    20.0;    T_J103 :    20.0;    T_J104 :    15.0;
    T_J105 :    5.0;    T_J11 :    15.0;    T_J111 :    10.0;    T_J112 :    5.0;    T_J113 :    10.0;
    T_J114 :    10.0;    T_J116 :    30.0;    T_J118 :    30.0;    T_J119 :    10.0;    T_J12 :    10.0;
    T_J120 :    15.0;    T_J127 :    5.0;    T_J128 :    5.0;    T_J129 :    5.0;    T_J13 :    5.0;
    T_J130 :    10.0;    T_J132 :    5.0;    T_J134 :    20.0;    T_J135 :    5.0;    T_J136 :    25.0;
    T_J137 :    10.0;    T_J139 :    10.0;    T_J14 :    5.0;    T_J140 :    10.0;    T_J141 :    10.0;
    T_J143 :    15.0;    T_J144 :    5.0;    T_J145 :    15.0;    T_J146 :    10.0;    T_J147 :    20.0;
    T_J148 :    20.0;    T_J149 :    5.0;    T_J15 :    5.0;    T_J150 :    5.0;    T_J153 :    25.0;
    T_J154 :    15.0;    T_J157 :    10.0;    T_J158 :    5.0;    T_J159 :    15.0;    T_J160 :    5.0;
    T_J161 :    10.0;    T_J167 :    5.0;    T_J17 :    5.0;    T_J170 :    5.0;    T_J172 :    5.0;
    T_J173 :    5.0;    T_J174 :    5.0;    T_J178 :    5.0;    T_J179 :    10.0;    T_J180 :    25.0;
    T_J181 :    5.0;    T_J182 :    10.0;    T_J183 :    10.0;    T_J184 :    10.0;    T_J185 :    10.0;
    T_J186 :    5.0;    T_J187 :    5.0;    T_J188 :    20.0;    T_J189 :    15.0;    T_J190 :    5.0;
    T_J2 :    5.0;    T_J20 :    10.0;    T_J22 :    5.0;    T_J25 :    5.0;    T_J26 :    10.0;
    T_J27 :    40.0;    T_J28 :    5.0;    T_J30 :    10.0;    T_J33 :    5.0;    T_J34 :    5.0;
    T_J35 :    5.0;    T_J37 :    15.0;    T_J40 :    5.0;    T_J42 :    10.0;    T_J43 :    25.0;
    T_J44 :    5.0;    T_J45 :    10.0;    T_J46 :    10.0;    T_J47 :    5.0;    T_J48 :    5.0;
    T_J49 :    5.0;    T_J51 :    5.0;    T_J55 :    15.0;    T_J56 :    25.0;    T_J57 :    20.0;
    T_J58 :    5.0;    T_J60 :    20.0;    T_J61 :    15.0;    T_J63 :    5.0;    T_J65 :    5.0;
    T_J66 :    10.0;    T_J69 :    30.0;    T_J70 :    5.0;    T_J72 :    20.0;    T_J73 :    25.0;
    T_J74 :    10.0;    T_J75 :    10.0;    T_J76 :    10.0;    T_J77 :    30.0;    T_J8 :    20.0;
    T_J80 :    5.0;    T_J81 :    10.0;    T_J82 :    5.0;    T_J83 :    10.0;    T_J86 :    5.0;
    T_J87 :    5.0;    T_J88 :    30.0;    T_J90 :    10.0;    T_J91 :    20.0;    T_J92 :    10.0;
    T_J94 :    15.0;    T_J98 :    5.0;    T_J99 :    5.0;

Origin  T_J10
    T_J1 :    15.0;    T_J10 :    35.0;    T_J101 :    15.0;    T_J102 :    10.0;
    T_J103 :    75.0;    T_J104 :    65.0;    T_J105 :    50.0;    T_J107 :    30.0;    T_J11 :    35.0;
    T_J110 :    25.0;    T_J111 :    30.0;    T_J112 :    55.0;    T_J113 :    15.0;    T_J114 :    25.0;
    T_J115 :    35.0;    T_J116 :    40.0;    T_J118 :    25.0;    T_J119 :    30.0;    T_J12 :    20.0;
    T_J120 :    45.0;    T_J121 :    10.0;    T_J122 :    10.0;    T_J124 :    5.0;    T_J126 :    40.0;
    T_J127 :    60.0;    T_J128 :    15.0;    T_J129 :    65.0;    T_J13 :    20.0;    T_J130 :    30.0;
    T_J131 :    40.0;    T_J132 :    20.0;    T_J133 :    5.0;    T_J134 :    60.0;    T_J135 :    30.0;
    T_J136 :    55.0;    T_J137 :    25.0;    T_J138 :    10.0;    T_J139 :    25.0;    T_J14 :    10.0;
    T_J140 :    35.0;    T_J141 :    15.0;    T_J143 :    50.0;    T_J144 :    5.0;    T_J145 :    60.0;
    T_J146 :    25.0;    T_J147 :    35.0;    T_J148 :    30.0;    T_J149 :    30.0;    T_J15 :    20.0;
    T_J150 :    15.0;    T_J152 :    10.0;    T_J153 :    130.0;    T_J154 :    40.0;    T_J155 :    10.0;
    T_J156 :    25.0;    T_J157 :    20.0;    T_J158 :    15.0;    T_J159 :    30.0;    T_J16 :    15.0;
    T_J160 :    25.0;    T_J161 :    10.0;    T_J164 :    15.0;    T_J166 :    15.0;    T_J167 :    40.0;
    T_J168 :    30.0;    T_J17 :    35.0;    T_J170 :    45.0;    T_J171 :    15.0;    T_J172 :    10.0;
    T_J173 :    15.0;    T_J174 :    10.0;    T_J175 :    10.0;    T_J178 :    25.0;    T_J179 :    65.0;
    T_J18 :    20.0;    T_J180 :    100.0;    T_J181 :    20.0;    T_J182 :    60.0;    T_J183 :    50.0;
    T_J184 :    40.0;    T_J185 :    45.0;    T_J186 :    75.0;    T_J187 :    15.0;    T_J188 :    75.0;
    T_J189 :    60.0;    T_J190 :    45.0;    T_J2 :    45.0;    T_J20 :    40.0;    T_J21 :    15.0;
    T_J22 :    5.0;    T_J24 :    15.0;    T_J25 :    30.0;    T_J26 :    35.0;    T_J27 :    120.0;
    T_J28 :    35.0;    T_J3 :    35.0;    T_J30 :    35.0;    T_J31 :    10.0;    T_J32 :    5.0;
    T_J33 :    40.0;    T_J34 :    25.0;    T_J35 :    30.0;    T_J37 :    45.0;    T_J39 :    10.0;
    T_J40 :    5.0;    T_J41 :    20.0;    T_J42 :    30.0;    T_J43 :    65.0;    T_J44 :    45.0;
    T_J45 :    20.0;    T_J46 :    65.0;    T_J47 :    95.0;    T_J48 :    35.0;    T_J49 :    30.0;
    T_J51 :    70.0;    T_J52 :    20.0;    T_J54 :    10.0;    T_J55 :    55.0;    T_J56 :    120.0;
    T_J57 :    60.0;    T_J58 :    80.0;    T_J60 :    65.0;    T_J61 :    95.0;    T_J62 :    15.0;
    T_J63 :    40.0;    T_J64 :    40.0;    T_J65 :    20.0;    T_J66 :    30.0;    T_J67 :    25.0;
    T_J68 :    40.0;    T_J69 :    55.0;    T_J7 :    5.0;    T_J70 :    25.0;    T_J71 :    10.0;
    T_J72 :    55.0;    T_J73 :    85.0;    T_J74 :    60.0;    T_J75 :    40.0;    T_J76 :    35.0;
    T_J77 :    30.0;    T_J78 :    20.0;    T_J8 :    60.0;    T_J80 :    25.0;    T_J81 :    15.0;
    T_J82 :    20.0;    T_J83 :    40.0;    T_J84 :    15.0;    T_J86 :    15.0;    T_J87 :    10.0;
    T_J88 :    50.0;    T_J90 :    75.0;    T_J91 :    30.0;    T_J92 :    30.0;    T_J93 :    25.0;
    T_J94 :    40.0;    T_J95 :    5.0;    T_J96 :    45.0;    T_J98 :    10.0;    T_J99 :    25.0;


Origin  T_J101
    T_J10 :    10.0;    T_J103 :    15.0;    T_J104 :    20.0;    T_J105 :    5.0;
    T_J11 :    15.0;    T_J110 :    5.0;    T_J111 :    5.0;    T_J112 :    10.0;    T_J113 :    10.0;
    T_J114 :    10.0;    T_J116 :    10.0;    T_J118 :    10.0;    T_J119 :    5.0;    T_J12 :    10.0;
    T_J120 :    15.0;    T_J126 :    10.0;    T_J127 :    5.0;    T_J128 :    5.0;    T_J129 :    25.0;
    T_J13 :    5.0;    T_J130 :    5.0;    T_J131 :    5.0;    T_J132 :    5.0;    T_J133 :    5.0;
    T_J134 :    20.0;    T_J135 :    5.0;    T_J136 :    20.0;    T_J137 :    10.0;    T_J138 :    5.0;
    T_J140 :    15.0;    T_J141 :    10.0;    T_J143 :    25.0;    T_J144 :    5.0;    T_J145 :    20.0;
    T_J146 :    5.0;    T_J147 :    20.0;    T_J15 :    5.0;    T_J150 :    10.0;    T_J152 :    5.0;
    T_J153 :    35.0;    T_J154 :    10.0;    T_J156 :    5.0;    T_J16 :    5.0;    T_J160 :    5.0;
    T_J164 :    5.0;    T_J166 :    5.0;    T_J167 :    5.0;    T_J168 :    5.0;    T_J17 :    10.0;
    T_J170 :    10.0;    T_J172 :    5.0;    T_J173 :    20.0;    T_J174 :    5.0;    T_J175 :    5.0;
    T_J178 :    5.0;    T_J179 :    20.0;    T_J18 :    5.0;    T_J180 :    20.0;    T_J181 :    15.0;
    T_J182 :    5.0;    T_J183 :    30.0;    T_J184 :    5.0;    T_J185 :    15.0;    T_J186 :    10.0;
    T_J187 :    5.0;    T_J188 :    15.0;    T_J189 :    15.0;    T_J190 :    25.0;    T_J2 :    15.0;
    T_J20 :    10.0;    T_J24 :    5.0;    T_J27 :    40.0;    T_J28 :    5.0;    T_J30 :    5.0;
    T_J31 :    5.0;    T_J32 :    5.0;    T_J33 :    5.0;    T_J34 :    5.0;    T_J35 :    10.0;
    T_J37 :    5.0;    T_J39 :    5.0;    T_J40 :    5.0;    T_J41 :    5.0;    T_J43 :    15.0;
    T_J44 :    5.0;    T_J46 :    10.0;    T_J47 :    15.0;    T_J48 :    5.0;    T_J49 :    5.0;
    T_J51 :    5.0;    T_J55 :    25.0;    T_J56 :    15.0;    T_J57 :    15.0;    T_J58 :    25.0;
    T_J60 :    10.0;    T_J61 :    15.0;    T_J63 :    10.0;    T_J64 :    10.0;    T_J66 :    30.0;
    T_J67 :    5.0;    T_J68 :    10.0;    T_J69 :    5.0;    T_J72 :    25.0;    T_J73 :    15.0;
    T_J74 :    10.0;    T_J75 :    15.0;    T_J76 :    15.0;    T_J77 :    10.0;    T_J8 :    10.0;
    T_J80 :    5.0;    T_J81 :    10.0;    T_J82 :    15.0;    T_J83 :    10.0;    T_J84 :    5.0;
    T_J86 :    5.0;    T_J88 :    20.0;    T_J90 :    20.0;    T_J91 :    15.0;    T_J92 :    10.0;
    T_J94 :    15.0;    T_J96 :    10.0;    T_J98 :    5.0;    T_J99 :    5.0;

Origin  T_J102
    T_J1 :    5.0;    T_J10 :    10.0;    T_J103 :    15.0;    T_J104 :    20.0;
    T_J105 :    20.0;    T_J107 :    5.0;    T_J11 :    15.0;    T_J111 :    10.0;    T_J112 :    10.0;
    T_J113 :    5.0;    T_J115 :    5.0;    T_J116 :    15.0;    T_J118 :    15.0;    T_J119 :    20.0;
    T_J120 :    10.0;    T_J122 :    5.0;    T_J123 :    10.0;    T_J124 :    5.0;    T_J125 :    5.0;
    T_J126 :    10.0;    T_J129 :    15.0;    T_J13 :    5.0;    T_J131 :    5.0;    T_J132 :    15.0;
    T_J133 :    5.0;    T_J134 :    15.0;    T_J135 :    5.0;    T_J136 :    10.0;    T_J137 :    10.0;
    T_J138 :    5.0;    T_J139 :    10.0;    T_J14 :    5.0;    T_J140 :    5.0;    T_J141 :    10.0;
    T_J143 :    20.0;    T_J144 :    5.0;    T_J145 :    5.0;    T_J147 :    10.0;    T_J148 :    5.0;
    T_J149 :    5.0;    T_J15 :    5.0;    T_J152 :    5.0;    T_J153 :    15.0;    T_J154 :    10.0;
    T_J155 :    5.0;    T_J156 :    5.0;    T_J159 :    5.0;    T_J16 :    5.0;    T_J160 :    5.0;
    T_J161 :    5.0;    T_J166 :    5.0;    T_J167 :    10.0;    T_J168 :    5.0;    T_J17 :    5.0;
    T_J170 :    10.0;    T_J171 :    5.0;    T_J172 :    5.0;    T_J173 :    5.0;    T_J174 :    5.0;
    T_J175 :    5.0;    T_J178 :    10.0;    T_J179 :    40.0;    T_J18 :    5.0;    T_J180 :    20.0;
    T_J181 :    5.0;    T_J182 :    10.0;    T_J183 :    15.0;    T_J184 :    10.0;    T_J185 :    10.0;
    T_J186 :    25.0;    T_J187 :    5.0;    T_J188 :    30.0;    T_J189 :    15.0;    T_J190 :    5.0;
    T_J2 :    15.0;    T_J20 :    10.0;    T_J21 :    5.0;    T_J22 :    5.0;    T_J24 :    5.0;
    T_J25 :    5.0;    T_J26 :    5.0;    T_J27 :    35.0;    T_J28 :    5.0;    T_J3 :    5.0;
    T_J30 :    10.0;    T_J32 :    5.0;    T_J33 :    15.0;    T_J34 :    5.0;    T_J35 :    10.0;
    T_J37 :    10.0;    T_J39 :    5.0;    T_J40 :    5.0;    T_J42 :    10.0;    T_J43 :    20.0;
    T_J44 :    5.0;    T_J45 :    10.0;    T_J46 :    10.0;    T_J47 :    15.0;    T_J48 :    10.0;
    T_J51 :    10.0;    T_J52 :    5.0;    T_J54 :    5.0;    T_J55 :    10.0;    T_J56 :    20.0;
    T_J57 :    35.0;    T_J58 :    10.0;    T_J61 :    15.0;    T_J63 :    5.0;    T_J64 :    15.0;
    T_J65 :    5.0;    T_J66 :    5.0;    T_J67 :    5.0;    T_J68 :    25.0;    T_J69 :    10.0;
    T_J7 :    5.0;    T_J70 :    5.0;    T_J72 :    10.0;    T_J73 :    25.0;    T_J75 :    5.0;
    T_J76 :    5.0;    T_J77 :    15.0;    T_J78 :    5.0;    T_J8 :    20.0;    T_J80 :    5.0;
    T_J81 :    10.0;    T_J82 :    10.0;    T_J83 :    5.0;    T_J84 :    5.0;    T_J86 :    10.0;
    T_J88 :    10.0;    T_J90 :    15.0;    T_J91 :    15.0;    T_J92 :    15.0;    T_J93 :    5.0;
    T_J94 :    10.0;    T_J96 :    15.0;

Origin  T_J103
    T_J1 :    15.0;    T_J10 :    70.0;    T_J101 :    20.0;    T_J102 :    20.0;
    T_J103 :    60.0;    T_J104 :    65.0;    T_J105 :    55.0;    T_J107 :    30.0;    T_J11 :    55.0;
    T_J110 :    20.0;    T_J111 :    65.0;    T_J112 :    35.0;    T_J113 :    20.0;    T_J114 :    65.0;
    T_J115 :    40.0;    T_J116 :    50.0;    T_J118 :    40.0;    T_J119 :    50.0;    T_J12 :    55.0;
    T_J120 :    55.0;    T_J121 :    15.0;    T_J122 :    10.0;    T_J123 :    35.0;    T_J124 :    5.0;
    T_J125 :    10.0;    T_J126 :    25.0;    T_J127 :    45.0;    T_J129 :    90.0;    T_J13 :    20.0;
    T_J130 :    50.0;    T_J131 :    45.0;    T_J132 :    20.0;    T_J134 :    60.0;    T_J135 :    45.0;
    T_J136 :    80.0;    T_J137 :    35.0;    T_J138 :    10.0;    T_J139 :    40.0;    T_J14 :    5.0;
    T_J140 :    55.0;    T_J141 :    45.0;    T_J143 :    90.0;    T_J144 :    15.0;    T_J145 :    95.0;
    T_J146 :    20.0;    T_J147 :    75.0;    T_J148 :    25.0;    T_J149 :    30.0;    T_J15 :    20.0;
    T_J150 :    25.0;    T_J152 :    10.0;    T_J153 :    200.0;    T_J154 :    80.0;    T_J155 :    10.0;
    T_J156 :    15.0;    T_J157 :    30.0;    T_J158 :    20.0;    T_J159 :    40.0;    T_J16 :    30.0;
    T_J160 :    20.0;    T_J161 :    30.0;    T_J164 :    15.0;    T_J166 :    10.0;    T_J167 :    40.0;
    T_J168 :    35.0;    T_J17 :    20.0;    T_J170 :    30.0;    T_J171 :    45.0;    T_J172 :    15.0;
    T_J173 :    20.0;    T_J174 :    50.0;    T_J175 :    15.0;    T_J178 :    15.0;    T_J179 :    35.0;
    T_J18 :    20.0;    T_J180 :    100.0;    T_J181 :    40.0;    T_J182 :    50.0;    T_J183 :    45.0;
    T_J184 :    60.0;    T_J185 :    35.0;    T_J186 :    60.0;    T_J187 :    10.0;    T_J188 :    50.0;
    T_J189 :    55.0;    T_J190 :    40.0;    T_J2 :    70.0;    T_J20 :    35.0;    T_J21 :    10.0;
    T_J22 :    10.0;    T_J24 :    20.0;    T_J25 :    60.0;    T_J26 :    20.0;    T_J27 :    110.0;
    T_J28 :    25.0;    T_J3 :    15.0;    T_J30 :    35.0;    T_J31 :    10.0;    T_J32 :    20.0;
    T_J33 :    55.0;    T_J34 :    30.0;    T_J35 :    40.0;    T_J37 :    55.0;    T_J39 :    5.0;
    T_J40 :    15.0;    T_J41 :    5.0;    T_J42 :    35.0;    T_J43 :    75.0;    T_J44 :    35.0;
    T_J45 :    25.0;    T_J46 :    60.0;    T_J47 :    85.0;    T_J48 :    30.0;    T_J49 :    25.0;
    T_J51 :    55.0;    T_J52 :    10.0;    T_J54 :    15.0;    T_J55 :    85.0;    T_J56 :    120.0;
    T_J57 :    85.0;    T_J58 :    110.0;    T_J60 :    70.0;    T_J61 :    85.0;    T_J62 :    10.0;
    T_J63 :    40.0;    T_J64 :    55.0;    T_J65 :    40.0;    T_J66 :    65.0;    T_J67 :    30.0;
    T_J68 :    75.0;    T_J69 :    75.0;    T_J7 :    10.0;    T_J70 :    20.0;    T_J71 :    15.0;
    T_J72 :    70.0;    T_J73 :    70.0;    T_J74 :    40.0;    T_J75 :    60.0;    T_J76 :    35.0;
    T_J77 :    40.0;    T_J78 :    20.0;    T_J8 :    65.0;    T_J80 :    30.0;    T_J81 :    20.0;
    T_J82 :    55.0;    T_J83 :    55.0;    T_J84 :    40.0;    T_J86 :    30.0;    T_J87 :    25.0;
    T_J88 :    70.0;    T_J90 :    85.0;    T_J91 :    55.0;    T_J92 :    20.0;    T_J93 :    20.0;
    T_J94 :    45.0;    T_J95 :    25.0;    T_J96 :    25.0;    T_J98 :    15.0;    T_J99 :    40.0;


Origin  T_J104
    T_J1 :    15.0;    T_J10 :    35.0;    T_J101 :    20.0;    T_J102 :    10.0;
    T_J103 :    95.0;    T_J104 :    40.0;    T_J105 :    65.0;    T_J107 :    35.0;    T_J11 :    45.0;
    T_J110 :    15.0;    T_J111 :    35.0;    T_J112 :    65.0;    T_J113 :    25.0;    T_J114 :    30.0;
    T_J115 :    30.0;    T_J116 :    25.0;    T_J118 :    45.0;    T_J119 :    45.0;    T_J12 :    35.0;
    T_J120 :    30.0;    T_J121 :    20.0;    T_J122 :    10.0;    T_J123 :    20.0;    T_J124 :    15.0;
    T_J125 :    15.0;    T_J126 :    25.0;    T_J127 :    45.0;    T_J128 :    10.0;    T_J129 :    115.0;
    T_J13 :    35.0;    T_J130 :    30.0;    T_J131 :    50.0;    T_J132 :    25.0;    T_J133 :    10.0;
    T_J134 :    85.0;    T_J135 :    25.0;    T_J136 :    100.0;    T_J137 :    55.0;    T_J138 :    35.0;
    T_J139 :    45.0;    T_J14 :    20.0;    T_J140 :    45.0;    T_J141 :    25.0;    T_J143 :    120.0;
    T_J144 :    15.0;    T_J145 :    90.0;    T_J146 :    35.0;    T_J147 :    60.0;    T_J148 :    25.0;
    T_J149 :    5.0;    T_J15 :    25.0;    T_J150 :    25.0;    T_J152 :    10.0;    T_J153 :    170.0;
    T_J154 :    55.0;    T_J155 :    10.0;    T_J156 :    45.0;    T_J157 :    50.0;    T_J159 :    50.0;
    T_J16 :    35.0;    T_J160 :    50.0;    T_J161 :    35.0;    T_J164 :    15.0;    T_J166 :    15.0;
    T_J167 :    75.0;    T_J168 :    25.0;    T_J17 :    20.0;    T_J170 :    50.0;    T_J171 :    20.0;
    T_J172 :    10.0;    T_J173 :    25.0;    T_J174 :    25.0;    T_J175 :    5.0;    T_J178 :    40.0;
    T_J179 :    60.0;    T_J18 :    20.0;    T_J180 :    145.0;    T_J181 :    35.0;    T_J182 :    85.0;
    T_J183 :    60.0;    T_J184 :    80.0;    T_J185 :    45.0;    T_J186 :    110.0;    T_J187 :    5.0;
    T_J188 :    80.0;    T_J189 :    50.0;    T_J190 :    40.0;    T_J2 :    45.0;    T_J20 :    40.0;
    T_J21 :    15.0;    T_J22 :    15.0;    T_J24 :    10.0;    T_J25 :    55.0;    T_J26 :    20.0;
    T_J27 :    145.0;    T_J28 :    25.0;    T_J3 :    15.0;    T_J30 :    55.0;    T_J31 :    5.0;
    T_J32 :    15.0;    T_J33 :    80.0;    T_J34 :    30.0;    T_J35 :    45.0;    T_J37 :    75.0;
    T_J39 :    10.0;    T_J40 :    30.0;    T_J41 :    15.0;    T_J42 :    20.0;    T_J43 :    110.0;
    T_J44 :    40.0;    T_J45 :    25.0;    T_J46 :    75.0;    T_J47 :    85.0;    T_J48 :    45.0;
    T_J49 :    5.0;    T_J51 :    55.0;    T_J52 :    25.0;    T_J54 :    15.0;    T_J55 :    85.0;
    T_J56 :    110.0;    T_J57 :    80.0;    T_J58 :    90.0;    T_J60 :    130.0;    T_J61 :    95.0;
    T_J62 :    15.0;    T_J63 :    75.0;    T_J64 :    60.0;    T_J65 :    35.0;    T_J66 :    60.0;
    T_J67 :    30.0;    T_J68 :    65.0;    T_J69 :    55.0;    T_J7 :    15.0;    T_J70 :    40.0;
    T_J71 :    10.0;    T_J72 :    55.0;    T_J73 :    80.0;    T_J74 :    30.0;    T_J75 :    35.0;
    T_J76 :    45.0;    T_J77 :    25.0;    T_J78 :    35.0;    T_J8 :    55.0;    T_J80 :    30.0;
    T_J81 :    20.0;    T_J82 :    35.0;    T_J83 :    40.0;    T_J84 :    40.0;    T_J86 :    10.0;
    T_J87 :    10.0;    T_J88 :    70.0;    T_J90 :    75.0;    T_J91 :    30.0;    T_J92 :    55.0;
    T_J93 :    15.0;    T_J94 :    45.0;    T_J95 :    15.0;    T_J96 :    25.0;    T_J98 :    15.0;
    T_J99 :    30.0;

Origin  T_J105
    T_J1 :    10.0;    T_J10 :    55.0;    T_J101 :    10.0;    T_J102 :    10.0;
    T_J103 :    80.0;    T_J104 :    75.0;    T_J105 :    40.0;    T_J107 :    15.0;    T_J11 :    25.0;
    T_J110 :    10.0;    T_J111 :    25.0;    T_J112 :    50.0;    T_J113 :    20.0;    T_J114 :    50.0;
    T_J115 :    50.0;    T_J116 :    45.0;    T_J118 :    40.0;    T_J119 :    25.0;    T_J12 :    40.0;
    T_J120 :    45.0;    T_J121 :    20.0;    T_J122 :    15.0;    T_J123 :    30.0;    T_J124 :    35.0;
    T_J125 :    15.0;    T_J126 :    20.0;    T_J127 :    30.0;    T_J128 :    20.0;    T_J129 :    110.0;
    T_J13 :    15.0;    T_J130 :    25.0;    T_J131 :    45.0;    T_J132 :    30.0;    T_J133 :    10.0;
    T_J134 :    65.0;    T_J135 :    30.0;    T_J136 :    110.0;    T_J137 :    30.0;    T_J138 :    10.0;
    T_J139 :    40.0;    T_J14 :    5.0;    T_J140 :    55.0;    T_J141 :    30.0;    T_J143 :    75.0;
    T_J144 :    25.0;    T_J145 :    90.0;    T_J146 :    20.0;    T_J147 :    105.0;    T_J148 :    20.0;
    T_J149 :    10.0;    T_J15 :    35.0;    T_J150 :    25.0;    T_J152 :    25.0;    T_J153 :    225.0;
    T_J154 :    70.0;    T_J155 :    10.0;    T_J156 :    45.0;    T_J157 :    20.0;    T_J158 :    20.0;
    T_J159 :    55.0;    T_J16 :    35.0;    T_J160 :    55.0;    T_J161 :    50.0;    T_J164 :    15.0;
    T_J166 :    20.0;    T_J167 :    55.0;    T_J168 :    20.0;    T_J17 :    20.0;    T_J170 :    25.0;
    T_J171 :    40.0;    T_J172 :    10.0;    T_J173 :    15.0;    T_J174 :    25.0;    T_J175 :    20.0;
    T_J178 :    35.0;    T_J179 :    60.0;    T_J18 :    40.0;    T_J180 :    120.0;    T_J181 :    50.0;
    T_J182 :    65.0;    T_J183 :    55.0;    T_J184 :    45.0;    T_J185 :    20.0;    T_J186 :    70.0;
    T_J187 :    10.0;    T_J188 :    90.0;    T_J189 :    80.0;    T_J190 :    35.0;    T_J2 :    50.0;
    T_J20 :    25.0;    T_J21 :    25.0;    T_J22 :    15.0;    T_J24 :    10.0;    T_J25 :    35.0;
    T_J26 :    30.0;    T_J27 :    110.0;    T_J28 :    30.0;    T_J3 :    25.0;    T_J30 :    60.0;
    T_J31 :    20.0;    T_J32 :    10.0;    T_J33 :    55.0;    T_J34 :    20.0;    T_J35 :    60.0;
    T_J37 :    70.0;    T_J39 :    15.0;    T_J40 :    10.0;    T_J41 :    15.0;    T_J42 :    20.0;
    T_J43 :    55.0;    T_J44 :    40.0;    T_J45 :    30.0;    T_J46 :    70.0;    T_J47 :    45.0;
    T_J48 :    35.0;    T_J49 :    30.0;    T_J51 :    95.0;    T_J54 :    15.0;    T_J55 :    90.0;
    T_J56 :    125.0;    T_J57 :    65.0;    T_J58 :    70.0;    T_J60 :    100.0;    T_J61 :    80.0;
    T_J62 :    15.0;    T_J63 :    50.0;    T_J64 :    40.0;    T_J65 :    30.0;    T_J66 :    95.0;
    T_J67 :    20.0;    T_J68 :    70.0;    T_J69 :    110.0;    T_J7 :    10.0;    T_J70 :    50.0;
    T_J71 :    15.0;    T_J72 :    50.0;    T_J73 :    80.0;    T_J74 :    25.0;    T_J75 :    50.0;
    T_J76 :    30.0;    T_J77 :    35.0;    T_J78 :    20.0;    T_J8 :    65.0;    T_J80 :    20.0;
    T_J81 :    35.0;    T_J82 :    50.0;    T_J83 :    75.0;    T_J84 :    65.0;    T_J86 :    20.0;
    T_J87 :    5.0;    T_J88 :    115.0;    T_J90 :    100.0;    T_J91 :    55.0;    T_J92 :    35.0;
    T_J93 :    20.0;    T_J94 :    40.0;    T_J95 :    15.0;    T_J96 :    40.0;    T_J98 :    25.0;
    T_J99 :    30.0;

Origin  T_J107
    T_J1 :    5.0;    T_J10 :    20.0;    T_J102 :    10.0;    T_J103 :    10.0;
    T_J104 :    25.0;    T_J105 :    25.0;    T_J11 :    25.0;    T_J110 :    10.0;    T_J111 :    10.0;
    T_J112 :    30.0;    T_J113 :    10.0;    T_J114 :    10.0;    T_J115 :    5.0;    T_J116 :    35.0;
    T_J118 :    10.0;    T_J119 :    25.0;    T_J12 :    15.0;    T_J120 :    25.0;    T_J122 :    10.0;
    T_J123 :    10.0;    T_J124 :    5.0;    T_J125 :    5.0;    T_J126 :    10.0;    T_J127 :    15.0;
    T_J129 :    55.0;    T_J130 :    20.0;    T_J131 :    15.0;    T_J132 :    10.0;    T_J133 :    10.0;
    T_J134 :    35.0;    T_J135 :    25.0;    T_J136 :    40.0;    T_J137 :    20.0;    T_J138 :    5.0;
    T_J139 :    15.0;    T_J14 :    5.0;    T_J140 :    25.0;    T_J141 :    15.0;    T_J143 :    55.0;
    T_J144 :    5.0;    T_J145 :    30.0;    T_J146 :    10.0;    T_J147 :    25.0;    T_J148 :    10.0;
    T_J149 :    5.0;    T_J15 :    15.0;    T_J150 :    20.0;    T_J152 :    5.0;    T_J153 :    60.0;
    T_J154 :    15.0;    T_J155 :    10.0;    T_J156 :    15.0;    T_J157 :    10.0;    T_J158 :    10.0;
    T_J159 :    15.0;    T_J16 :    10.0;    T_J160 :    15.0;    T_J164 :    20.0;    T_J166 :    10.0;
    T_J167 :    10.0;    T_J168 :    20.0;    T_J17 :    10.0;    T_J170 :    15.0;    T_J171 :    10.0;
    T_J173 :    10.0;    T_J174 :    20.0;    T_J175 :    5.0;    T_J178 :    20.0;    T_J179 :    45.0;
    T_J18 :    5.0;    T_J180 :    60.0;    T_J181 :    20.0;    T_J182 :    20.0;    T_J184 :    30.0;
    T_J185 :    25.0;    T_J186 :    20.0;    T_J187 :    5.0;    T_J188 :    40.0;    T_J189 :    30.0;
    T_J190 :    10.0;    T_J2 :    30.0;    T_J20 :    10.0;    T_J21 :    5.0;    T_J22 :    5.0;
    T_J24 :    5.0;    T_J25 :    10.0;    T_J26 :    5.0;    T_J27 :    70.0;    T_J28 :    15.0;
    T_J30 :    5.0;    T_J32 :    10.0;    T_J33 :    25.0;    T_J34 :    10.0;    T_J35 :    5.0;
    T_J37 :    15.0;    T_J39 :    5.0;    T_J40 :    5.0;    T_J41 :    5.0;    T_J42 :    5.0;
    T_J43 :    55.0;    T_J44 :    35.0;    T_J45 :    10.0;    T_J46 :    25.0;    T_J47 :    15.0;
    T_J48 :    25.0;    T_J49 :    5.0;    T_J51 :    30.0;    T_J52 :    10.0;    T_J54 :    5.0;
    T_J55 :    50.0;    T_J56 :    55.0;    T_J57 :    35.0;    T_J58 :    30.0;    T_J60 :    45.0;
    T_J61 :    25.0;    T_J63 :    15.0;    T_J64 :    35.0;    T_J65 :    5.0;    T_J66 :    30.0;
    T_J67 :    5.0;    T_J68 :    20.0;    T_J69 :    30.0;    T_J7 :    10.0;    T_J70 :    5.0;
    T_J71 :    10.0;    T_J72 :    10.0;    T_J73 :    40.0;    T_J74 :    5.0;    T_J75 :    15.0;
    T_J76 :    20.0;    T_J77 :    15.0;    T_J78 :    10.0;    T_J8 :    30.0;    T_J81 :    10.0;
    T_J82 :    15.0;    T_J83 :    20.0;    T_J84 :    10.0;    T_J86 :    10.0;    T_J87 :    5.0;
    T_J88 :    40.0;    T_J90 :    20.0;    T_J91 :    30.0;    T_J92 :    15.0;    T_J93 :    10.0;
    T_J94 :    10.0;    T_J95 :    10.0;    T_J96 :    15.0;    T_J98 :    5.0;    T_J99 :    25.0;


Origin  T_J11
    T_J1 :    10.0;    T_J10 :    25.0;    T_J101 :    10.0;    T_J102 :    10.0;
    T_J103 :    50.0;    T_J104 :    45.0;    T_J105 :    55.0;    T_J107 :    15.0;    T_J11 :    15.0;
    T_J110 :    5.0;    T_J111 :    25.0;    T_J112 :    35.0;    T_J113 :    25.0;    T_J114 :    20.0;
    T_J115 :    30.0;    T_J116 :    30.0;    T_J118 :    20.0;    T_J119 :    20.0;    T_J12 :    10.0;
    T_J120 :    40.0;    T_J121 :    5.0;    T_J123 :    35.0;    T_J124 :    5.0;    T_J125 :    15.0;
    T_J126 :    20.0;    T_J127 :    20.0;    T_J129 :    80.0;    T_J13 :    10.0;    T_J130 :    5.0;
    T_J131 :    30.0;    T_J132 :    25.0;    T_J133 :    15.0;    T_J134 :    60.0;    T_J135 :    15.0;
    T_J136 :    60.0;    T_J137 :    45.0;    T_J138 :    15.0;    T_J139 :    5.0;    T_J14 :    5.0;
    T_J140 :    25.0;    T_J141 :    20.0;    T_J143 :    40.0;    T_J144 :    5.0;    T_J145 :    20.0;
    T_J146 :    10.0;    T_J147 :    65.0;    T_J148 :    25.0;    T_J149 :    20.0;    T_J15 :    15.0;
    T_J150 :    10.0;    T_J152 :    10.0;    T_J153 :    115.0;    T_J154 :    60.0;    T_J155 :    5.0;
    T_J156 :    15.0;    T_J157 :    15.0;    T_J158 :    5.0;    T_J159 :    15.0;    T_J16 :    10.0;
    T_J160 :    30.0;    T_J161 :    10.0;    T_J164 :    10.0;    T_J166 :    5.0;    T_J167 :    25.0;
    T_J168 :    5.0;    T_J17 :    10.0;    T_J170 :    40.0;    T_J171 :    25.0;    T_J172 :    15.0;
    T_J173 :    10.0;    T_J174 :    5.0;    T_J175 :    5.0;    T_J178 :    30.0;    T_J179 :    25.0;
    T_J18 :    25.0;    T_J180 :    80.0;    T_J181 :    15.0;    T_J182 :    35.0;    T_J183 :    30.0;
    T_J184 :    35.0;    T_J185 :    15.0;    T_J186 :    70.0;    T_J187 :    10.0;    T_J188 :    35.0;
    T_J189 :    50.0;    T_J190 :    20.0;    T_J2 :    25.0;    T_J20 :    20.0;    T_J21 :    5.0;
    T_J22 :    10.0;    T_J24 :    10.0;    T_J25 :    40.0;    T_J26 :    15.0;    T_J27 :    85.0;
    T_J28 :    15.0;    T_J3 :    15.0;    T_J30 :    30.0;    T_J31 :    5.0;    T_J32 :    5.0;
    T_J33 :    35.0;    T_J34 :    20.0;    T_J35 :    15.0;    T_J37 :    35.0;    T_J39 :    20.0;
    T_J40 :    10.0;    T_J41 :    15.0;    T_J42 :    15.0;    T_J43 :    30.0;    T_J44 :    35.0;
    T_J45 :    15.0;    T_J46 :    40.0;    T_J47 :    40.0;    T_J48 :    30.0;    T_J49 :    10.0;
    T_J51 :    15.0;    T_J54 :    10.0;    T_J55 :    45.0;    T_J56 :    45.0;    T_J57 :    45.0;
    T_J58 :    60.0;    T_J60 :    70.0;    T_J61 :    50.0;    T_J62 :    15.0;    T_J63 :    20.0;
    T_J64 :    30.0;    T_J65 :    25.0;    T_J66 :    40.0;    T_J67 :    20.0;    T_J68 :    35.0;
    T_J69 :    20.0;    T_J71 :    5.0;    T_J72 :    40.0;    T_J73 :    55.0;    T_J74 :    10.0;
    T_J75 :    15.0;    T_J76 :    15.0;    T_J77 :    15.0;    T_J78 :    5.0;    T_J8 :    40.0;
    T_J80 :    20.0;    T_J81 :    15.0;    T_J82 :    20.0;    T_J83 :    30.0;    T_J84 :    25.0;
    T_J86 :    15.0;    T_J87 :    15.0;    T_J88 :    55.0;    T_J90 :    50.0;    T_J91 :    35.0;
    T_J92 :    20.0;    T_J93 :    10.0;    T_J94 :    35.0;    T_J95 :    5.0;    T_J96 :    40.0;
    T_J98 :    5.0;    T_J99 :    35.0;

Origin  T_J110
    T_J1 :    5.0;    T_J10 :    15.0;    T_J103 :    5.0;    T_J104 :    5.0;
    T_J105 :    10.0;    T_J11 :    10.0;    T_J111 :    15.0;    T_J112 :    5.0;    T_J114 :    20.0;
    T_J115 :    5.0;    T_J116 :    10.0;    T_J118 :    15.0;    T_J119 :    10.0;    T_J120 :    5.0;
    T_J123 :    5.0;    T_J124 :    5.0;    T_J125 :    5.0;    T_J126 :    5.0;    T_J127 :    5.0;
    T_J129 :    25.0;    T_J13 :    5.0;    T_J130 :    10.0;    T_J131 :    10.0;    T_J132 :    5.0;
    T_J133 :    5.0;    T_J134 :    25.0;    T_J136 :    25.0;    T_J137 :    10.0;    T_J14 :    5.0;
    T_J140 :    5.0;    T_J141 :    10.0;    T_J143 :    15.0;    T_J144 :    10.0;    T_J145 :    10.0;
    T_J147 :    25.0;    T_J148 :    5.0;    T_J15 :    5.0;    T_J150 :    5.0;    T_J153 :    45.0;
    T_J154 :    20.0;    T_J156 :    5.0;    T_J157 :    10.0;    T_J158 :    5.0;    T_J159 :    15.0;
    T_J16 :    5.0;    T_J160 :    10.0;    T_J161 :    5.0;    T_J164 :    5.0;    T_J167 :    5.0;
    T_J168 :    5.0;    T_J17 :    5.0;    T_J170 :    10.0;    T_J172 :    5.0;    T_J174 :    5.0;
    T_J178 :    10.0;    T_J179 :    35.0;    T_J18 :    15.0;    T_J180 :    20.0;    T_J181 :    10.0;
    T_J182 :    10.0;    T_J183 :    10.0;    T_J184 :    10.0;    T_J185 :    5.0;    T_J186 :    10.0;
    T_J187 :    5.0;    T_J188 :    20.0;    T_J189 :    15.0;    T_J2 :    20.0;    T_J21 :    5.0;
    T_J24 :    5.0;    T_J27 :    45.0;    T_J28 :    5.0;    T_J3 :    5.0;    T_J30 :    5.0;
    T_J31 :    5.0;    T_J32 :    10.0;    T_J33 :    5.0;    T_J34 :    5.0;    T_J35 :    10.0;
    T_J37 :    10.0;    T_J39 :    5.0;    T_J42 :    5.0;    T_J43 :    20.0;    T_J44 :    5.0;
    T_J45 :    5.0;    T_J46 :    10.0;    T_J47 :    10.0;    T_J48 :    15.0;    T_J49 :    5.0;
    T_J51 :    25.0;    T_J55 :    15.0;    T_J56 :    20.0;    T_J57 :    5.0;    T_J58 :    5.0;
    T_J60 :    25.0;    T_J61 :    25.0;    T_J63 :    10.0;    T_J64 :    30.0;    T_J65 :    5.0;
    T_J66 :    15.0;    T_J67 :    5.0;    T_J68 :    15.0;    T_J69 :    20.0;    T_J7 :    5.0;
    T_J73 :    5.0;    T_J74 :    15.0;    T_J75 :    15.0;    T_J76 :    15.0;    T_J77 :    10.0;
    T_J78 :    5.0;    T_J8 :    20.0;    T_J80 :    10.0;    T_J81 :    10.0;    T_J82 :    10.0;
    T_J83 :    15.0;    T_J84 :    10.0;    T_J86 :    5.0;    T_J88 :    5.0;    T_J90 :    25.0;
    T_J91 :    10.0;    T_J92 :    15.0;    T_J93 :    5.0;    T_J94 :    25.0;    T_J95 :    10.0;
    T_J98 :    5.0;

Origin  T_J111
    T_J1 :    15.0;    T_J10 :    55.0;    T_J102 :    15.0;    T_J103 :    50.0;
    T_J104 :    55.0;    T_J105 :    40.0;    T_J107 :    25.0;    T_J11 :    60.0;    T_J110 :    5.0;