<NUMBER OF ZONES> 191
<NUMBER OF NODES> 191
<FIRST THRU NODE> T_J0											
<NUMBER OF LINKS>590											
<END OF METADATA>											
											
					
~ 	Init node	Term node	Capacity	Length	Free Flow Time	B	Power	Speed limit	Toll	Type	id	;
T_J0	T_J1	6600	3.205219669714318	1.8384282012831281	0.15	4	0	0	1	T_L0	;
T_J1	T_J8	6600	1.038957456183795	0.5959181847751209	0.15	4	0	0	1	T_L9	;
T_J1	T_J7	5000	0.6689038769969889	0.623456206430244	0.15	4	0	0	1	T_L8	;
T_J1	T_J0	6600	3.205219669714318	1.8384282012831281	0.15	4	0	0	1	T_L296	;
T_J2	T_J181	5000	6.12997298419198	5.713481164740532	0.15	4	0	0	1	T_L496	;
T_J2	T_J3	5000	3.9695080189863066	3.6998057508983107	0.15	4	0	0	1	T_L297	;
T_J2	T_J26	5000	5.877732305634951	5.4783786007270425	0.15	4	0	0	1	T_L201	;
T_J3	T_J6	5000	3.98042051988277	3.709976818290115	0.15	4	0	0	1	T_L300	;
T_J3	T_J2	5000	3.9695080189863066	3.6998057508983107	0.15	4	0	0	1	T_L1	;
T_J3	T_J18	5000	4.219000213452481	3.932346572449773	0.15	4	0	0	1	T_L202	;
T_J4	T_J6	5000	1.9469193052573206	1.8146387934405699	0.15	4	0	0	1	T_L299	;
T_J4	T_J5	5000	5.88738794360089	5.4873782008548435	0.15	4	0	0	1	T_L2	;
T_J5	T_J9	5000	2.9579514710200483	2.7569778952487973	0.15	4	0	0	1	T_L302	;
T_J5	T_J4	5000	5.88738794360089	5.4873782008548435	0.15	4	0	0	1	T_L298	;
T_J6	T_J15	5000	2.8978896856975913	2.700996917837397	0.15	4	0	0	1	T_L203	;
T_J6	T_J4	5000	1.9469193052573206	1.8146387934405699	0.15	4	0	0	1	T_L3	;
T_J6	T_J3	5000	3.98042051988277	3.709976818290115	0.15	4	0	0	1	T_L4	;
T_J7	T_J8	5000	0.8787047775462932	0.8190024994930766	0.15	4	0	0	1	T_L301	;
T_J7	T_J1	5000	0.6689038769969889	0.623456206430244	0.15	4	0	0	1	T_L304	;
T_J7	T_J180	5000	7.963673572199851	7.42259371684709	0.15	4	0	0	1	T_L490	;
T_J8	T_J7	5000	0.8787047775462932	0.8190024994930766	0.15	4	0	0	1	T_L5	;
T_J8	T_J1	6600	1.038957456183795	0.5959181847751209	0.15	4	0	0	1	T_L305	;
T_J8	T_J37	6600	8.230962950069008	4.72106001161292	0.15	4	0	0	1	T_L193	;
T_J8	T_J179	5000	5.918457193261105	5.516336496950769	0.15	4	0	0	1	T_L488	;
T_J9	T_J5	5000	2.9579514710200483	2.7569778952487973	0.15	4	0	0	1	T_L6	;
T_J9	T_J12	5000	0.6719805441467094	0.6263238340454775	0.15	4	0	0	1	T_L309	;
T_J9	T_J14	5000	4.038459779523018	3.7640726874929955	0.15	4	0	0	1	T_L310	;
T_J10	T_J11	5000	1.4146318902147998	1.3185168483819905	0.15	4	0	0	1	T_L7	;
T_J10	T_J181	5000	11.557473710670475	10.772218495609534	0.15	4	0	0	1	T_L199	;
T_J10	T_J30	5000	6.387041876535427	5.953083896797042	0.15	4	0	0	1	T_L198	;
T_J11	T_J180	5000	2.5088850691752596	2.33842263647775	0.15	4	0	0	1	T_L493	;
T_J11	T_J10	5000	1.4146318902147998	1.3185168483819905	0.15	4	0	0	1	T_L303	;
T_J11	T_J33	6600	7.794679833042126	4.470819694649741	0.15	4	0	0	1	T_L196	;
T_J12	T_J9	5000	0.6719805441467094	0.6263238340454775	0.15	4	0	0	1	T_L13	;
T_J12	T_J13	6600	3.8648713899329667	2.2167867696314194	0.15	4	0	0	1	T_L306	;
T_J12	T_J21	5000	1.7956299122910697	1.6736285313453214	0.15	4	0	0	1	T_L589	;
T_J13	T_J17	6600	4.363337105053569	2.7112511403042414	0.15	4	0	0	1	T_L15	;
T_J13	T_J12	6600	3.8648713899329667	2.2167867696314194	0.15	4	0	0	1	T_L10	;
T_J13	T_J52	6600	4.299762829589698	2.466228857709212	0.15	4	0	0	1	T_L208	;
T_J14	T_J9	5000	4.038459779523018	3.7640726874929955	0.15	4	0	0	1	T_L14	;
T_J14	T_J15	6600	4.157813036430184	2.3848102562396862	0.15	4	0	0	1	T_L307	;
T_J14	T_J23	5000	3.4399790853524057	3.2062548663667645	0.15	4	0	0	1	T_L210	;
T_J15	T_J6	5000	2.8978896856975913	2.700996917837397	0.15	4	0	0	1	T_L499	;
T_J15	T_J14	6600	4.157813036430184	2.3848102562396862	0.15	4	0	0	1	T_L11	;
T_J15	T_J16	5000	2.7362138141913537	2.550305870906844	0.15	4	0	0	1	T_L12	;
T_J15	T_J18	6600	4.307487687677392	2.470659629519805	0.15	4	0	0	1	T_L16	;
T_J16	T_J46	5000	2.7636804876785455	2.575906362463958	0.15	4	0	0	1	T_L522	;
T_J16	T_J19	5000	4.010807397919436	3.7382991054788968	0.15	4	0	0	1	T_L319	;
T_J16	T_J23	5000	3.0176125572096772	2.8125853984289013	0.15	4	0	0	1	T_L318	;
T_J16	T_J15	5000	2.7362138141913537	2.550305870906844	0.15	4	0	0	1	T_L308	;
T_J17	T_J21	6600	0.5300662892759724	0.32936782023370026	0.15	4	0	0	1	T_L315	;
T_J17	T_J22	6600	3.210671591897521	1.9950182177289542	0.15	4	0	0	1	T_L316	;
T_J17	T_J13	6600	4.363337105053569	2.7112511403042414	0.15	4	0	0	1	T_L311	;
T_J18	T_J20	6600	2.5353287743517376	1.4541967161671203	0.15	4	0	0	1	T_L314	;
T_J18	T_J19	5000	1.5211212129167937	1.4177709137869816	0.15	4	0	0	1	T_L313	;
T_J18	T_J3	5000	4.219000213452481	3.932346572449773	0.15	4	0	0	1	T_L498	;
T_J18	T_J15	6600	4.307487687677392	2.470659629519805	0.15	4	0	0	1	T_L312	;
T_J19	T_J20	5000	1.4815095773276035	1.3808506313604454	0.15	4	0	0	1	T_L320	;
T_J19	T_J18	5000	1.5211212129167937	1.4177709137869816	0.15	4	0	0	1	T_L17	;
T_J19	T_J16	5000	4.010807397919436	3.7382991054788968	0.15	4	0	0	1	T_L23	;
T_J20	T_J29	6600	0.6400261378322704	0.3671018596532083	0.15	4	0	0	1	T_L326	;
T_J20	T_J26	5000	2.337084518880593	2.1782948168720293	0.15	4	0	0	1	T_L28	;
T_J20	T_J18	6600	2.5353287743517376	1.4541967161671203	0.15	4	0	0	1	T_L18	;
T_J20	T_J19	5000	1.4815095773276035	1.3808506313604454	0.15	4	0	0	1	T_L24	;
T_J21	T_J17	6600	0.5300662892759724	0.32936782023370026	0.15	4	0	0	1	T_L19	;
T_J21	T_J12	5000	1.7956299122910697	1.6736285313453214	0.15	4	0	0	1	T_L292	;
T_J21	T_J24	6600	4.865728620201124	3.0234226584629926	0.15	4	0	0	1	T_L207	;
T_J22	T_J52	6600	1.9437501076915156	1.2077899481663847	0.15	4	0	0	1	T_L209	;
T_J22	T_J17	6600	3.210671591897521	1.9950182177289542	0.15	4	0	0	1	T_L20	;
T_J22	T_J25	5000	3.8737223401227268	3.6105280863065983	0.15	4	0	0	1	T_L25	;
T_J23	T_J14	5000	3.4399790853524057	3.2062548663667645	0.15	4	0	0	1	T_L506	;
T_J23	T_J24	5000	0.5722692560166088	0.5333872798204444	0.15	4	0	0	1	T_L317	;
T_J23	T_J16	5000	3.0176125572096772	2.8125853984289013	0.15	4	0	0	1	T_L22	;
T_J24	T_J23	5000	0.5722692560166088	0.5333872798204444	0.15	4	0	0	1	T_L21	;
T_J24	T_J21	6600	4.865728620201124	3.0234226584629926	0.15	4	0	0	1	T_L503	;
T_J24	T_J62	5000	6.039428124392613	5.629088239622943	0.15	4	0	0	1	T_L521	;
T_J24	T_J46	6600	3.741698330404939	2.3249828332620472	0.15	4	0	0	1	T_L517	;
T_J25	T_J62	5000	10.394113589890715	9.687901133195975	0.15	4	0	0	1	T_L507	;
T_J25	T_J22	5000	3.8737223401227268	3.6105280863065983	0.15	4	0	0	1	T_L321	;
T_J25	T_J50	5000	0.6741286069243572	0.6283259499197921	0.15	4	0	0	1	T_L346	;
T_J26	T_J27	5000	1.5704675576897282	1.4637644951838362	0.15	4	0	0	1	T_L322	;
T_J26	T_J28	5000	0.7531851007178308	0.7020110688272089	0.15	4	0	0	1	T_L323	;
T_J26	T_J20	5000	2.337084518880593	2.1782948168720293	0.15	4	0	0	1	T_L324	;
T_J26	T_J2	5000	5.877732305634951	5.4783786007270425	0.15	4	0	0	1	T_L497	;
T_J27	T_J26	5000	1.5704675576897282	1.4637644951838362	0.15	4	0	0	1	T_L26	;
T_J27	T_J183	5000	9.298730837983939	8.666942519293377	0.15	4	0	0	1	T_L501	;
T_J27	T_J36	5000	2.3387961877637005	2.1798901889803775	0.15	4	0	0	1	T_L509	;
T_J28	T_J26	5000	0.7531851007178308	0.7020110688272089	0.15	4	0	0	1	T_L27	;
T_J28	T_J29	6600	1.8458838895659597	1.0587495861632217	0.15	4	0	0	1	T_L325	;
T_J28	T_J36	6600	2.3366732723605868	1.3402532380799725	0.15	4	0	0	1	T_L332	;
T_J29	T_J20	6600	0.6400261378322704	0.3671018596532083	0.15	4	0	0	1	T_L30	;
T_J29	T_J28	6600	1.8458838895659597	1.0587495861632217	0.15	4	0	0	1	T_L29	;
T_J29	T_J60	5000	5.6428690309846985	5.2594727589779895	0.15	4	0	0	1	T_L214	;
T_J30	T_J10	5000	6.387041876535427	5.953083896797042	0.15	4	0	0	1	T_L494	;
T_J30	T_J182	5000	4.264616439114774	3.974863472083779	0.15	4	0	0	1	T_L500	;
T_J30	T_J31	5000	0.9179763394785824	0.8556058140572194	0.15	4	0	0	1	T_L327	;
T_J31	T_J48	5000	2.244297306336419	2.0918118923033506	0.15	4	0	0	1	T_L231	;
T_J31	T_J32	5000	1.9500936496098087	1.8175974617275448	0.15	4	0	0	1	T_L32	;
T_J31	T_J30	5000	0.9179763394785824	0.8556058140572194	0.15	4	0	0	1	T_L31	;
T_J32	T_J31	5000	1.9500936496098087	1.8175974617275448	0.15	4	0	0	1	T_L328	;
T_J32	T_J33	5000	1.1819920348397246	1.1016833590205917	0.15	4	0	0	1	T_L34	;
T_J32	T_J35	5000	1.5944714982533517	1.4861375240117751	0.15	4	0	0	1	T_L35	;
T_J33	T_J11	6600	7.794679833042126	4.470819694649741	0.15	4	0	0	1	T_L492	;
T_J33	T_J32	5000	1.1819920348397246	1.1016833590205917	0.15	4	0	0	1	T_L330	;
T_J33	T_J34	6600	0.7038485074874444	0.4037086624116746	0.15	4	0	0	1	T_L329	;
T_J34	T_J38	6600	0.3308949809494644	0.18979250326850738	0.15	4	0	0	1	T_L334	;
T_J34	T_J33	6600	0.7038485074874444	0.4037086624116746	0.15	4	0	0	1	T_L33	;
T_J34	T_J180	6600	7.4998002065106455	4.6601583541197265	0.15	4	0	0	1	T_L491	;
T_J34	T_J37	5000	3.9006162221341922	3.6355947038456176	0.15	4	0	0	1	T_L333	;
T_J35	T_J32	5000	1.5944714982533517	1.4861375240117751	0.15	4	0	0	1	T_L331	;
T_J35	T_J40	6600	1.4100853392041797	0.808787203667668	0.15	4	0	0	1	T_L47	;
T_J35	T_J48	6600	2.6112123721027265	1.4977215164915478	0.15	4	0	0	1	T_L48	;
T_J36	T_J27	5000	2.3387961877637005	2.1798901889803775	0.15	4	0	0	1	T_L213	;
T_J36	T_J28	6600	2.3366732723605868	1.3402532380799725	0.15	4	0	0	1	T_L36	;
T_J37	T_J39	6600	0.45157291116154724	0.2590101335827955	0.15	4	0	0	1	T_L335	;
T_J37	T_J34	5000	3.9006162221341922	3.6355947038456176	0.15	4	0	0	1	T_L37	;
T_J37	T_J8	6600	8.230962950069008	4.72106001161292	0.15	4	0	0	1	T_L489	;
T_J38	T_J40	6600	1.063635706091583	0.6609123823298331	0.15	4	0	0	1	T_L40	;
T_J38	T_J42	6600	1.3117662208298502	0.7523939892953214	0.15	4	0	0	1	T_L42	;
T_J38	T_J34	6600	0.3308949809494644	0.18979250326850738	0.15	4	0	0	1	T_L38	;
T_J39	T_J41	5000	0.8707012730093872	0.811542781066674	0.15	4	0	0	1	T_L41	;
T_J39	T_J37	6600	0.45157291116154724	0.2590101335827955	0.15	4	0	0	1	T_L39	;
T_J39	T_J53	6600	1.7393696273564105	0.9976558566646895	0.15	4	0	0	1	T_L349	;
T_J40	T_J72	6600	5.2247248585163115	3.246492510061139	0.15	4	0	0	1	T_L246	;
T_J40	T_J42	6600	0.7983831579557658	0.4579312073004297	0.15	4	0	0	1	T_L342	;
T_J40	T_J38	6600	1.063635706091583	0.6609123823298331	0.15	4	0	0	1	T_L336	;
T_J40	T_J35	6600	1.4100853392041797	0.808787203667668	0.15	4	0	0	1	T_L343	;
T_J41	T_J39	5000	0.8707012730093872	0.811542781066674	0.15	4	0	0	1	T_L337	;
T_J41	T_J43	5000	1.7979887211171892	1.6758270744439634	0.15	4	0	0	1	T_L339	;
T_J42	T_J73	6600	5.187011800149774	2.9751311162500294	0.15	4	0	0	1	T_L282	;
T_J42	T_J49	6600	3.3617631820540925	1.9282173694118157	0.15	4	0	0	1	T_L345	;
T_J42	T_J40	6600	0.7983831579557658	0.4579312073004297	0.15	4	0	0	1	T_L46	;
T_J42	T_J38	6600	1.3117662208298502	0.7523939892953214	0.15	4	0	0	1	T_L338	;
T_J43	T_J41	5000	1.7979887211171892	1.6758270744439634	0.15	4	0	0	1	T_L43	;
T_J43	T_J49	6600	0.6949366811204024	0.39859707737027594	0.15	4	0	0	1	T_L352	;
T_J43	T_J83	6600	7.4831646551814	4.292142927650513	0.15	4	0	0	1	T_L284	;
T_J44	T_J45	5000	0.23804964695576414	0.2218757207678252	0.15	4	0	0	1	T_L340	;
T_J44	T_J61	5000	4.04508628470115	3.770248964716558	0.15	4	0	0	1	T_L511	;
T_J44	T_J58	6600	4.363340272519404	2.5026951770544503	0.15	4	0	0	1	T_L502	;
T_J45	T_J44	5000	0.23804964695576414	0.2218757207678252	0.15	4	0	0	1	T_L44	;
T_J46	T_J47	5000	3.9158143528316574	3.6497602203500397	0.15	4	0	0	1	T_L45	;
T_J46	T_J24	6600	3.741698330404939	2.3249828332620472	0.15	4	0	0	1	T_L221	;
T_J46	T_J16	5000	2.7636804876785455	2.575906362463958	0.15	4	0	0	1	T_L226	;
T_J46	T_J60	6600	6.795818401072204	4.222724475692636	0.15	4	0	0	1	T_L356	;
T_J47	T_J77	5000	5.4230866341301365	5.054623147404115	0.15	4	0	0	1	T_L516	;
T_J47	T_J62	5000	3.07321194104321	2.864407165526941	0.15	4	0	0	1	T_L358	;
T_J47	T_J46	5000	3.9158143528316574	3.6497602203500397	0.15	4	0	0	1	T_L341	;
T_J48	T_J35	6600	2.6112123721027265	1.4977215164915478	0.15	4	0	0	1	T_L344	;
T_J48	T_J55	5000	3.969059132207902	3.699387363058735	0.15	4	0	0	1	T_L351	;
T_J48	T_J51	6600	3.5126146155798326	2.014741713505344	0.15	4	0	0	1	T_L347	;
T_J48	T_J31	5000	2.244297306336419	2.0918118923033506	0.15	4	0	0	1	T_L527	;
T_J49	T_J43	6600	0.6949366811204024	0.39859707737027594	0.15	4	0	0	1	T_L56	;
T_J49	T_J82	6600	6.161354183867341	3.8284868105838337	0.15	4	0	0	1	T_L283	;
T_J49	T_J42	6600	3.3617631820540925	1.9282173694118157	0.15	4	0	0	1	T_L49	;
T_J50	T_J25	5000	0.6741286069243572	0.6283259499197921	0.15	4	0	0	1	T_L50	;
T_J50	T_J52	6600	5.103095258678945	2.926998834443626	0.15	4	0	0	1	T_L52	;
T_J50	T_J59	6600	1.1595686536274723	0.6650975389598365	0.15	4	0	0	1	T_L355	;
T_J51	T_J55	6600	4.784918240843581	2.973209432231217	0.15	4	0	0	1	T_L585	;
T_J51	T_J48	6600	3.5126146155798326	2.014741713505344	0.15	4	0	0	1	T_L51	;
T_J51	T_J68	5000	3.776052004182354	3.5194938148361903	0.15	4	0	0	1	T_L233	;
T_J51	T_J54	6600	0.6801049234205776	0.39008997818840097	0.15	4	0	0	1	T_L54	;
T_J51	T_J56	6600	2.6258045676871777	1.5060912092569378	0.15	4	0	0	1	T_L353	;
T_J52	T_J22	6600	1.9437501076915156	1.2077899481663847	0.15	4	0	0	1	T_L505	;
T_J52	T_J13	6600	4.299762829589698	2.466228857709212	0.15	4	0	0	1	T_L504	;
T_J52	T_J50	6600	5.103095258678945	2.926998834443626	0.15	4	0	0	1	T_L348	;
T_J53	T_J39	6600	1.7393696273564105	0.9976558566646895	0.15	4	0	0	1	T_L53	;
T_J54	T_J183	6600	4.292993049902889	2.4623458933026536	0.15	4	0	0	1	T_L218	;
T_J54	T_J51	6600	0.6801049234205776	0.39008997818840097	0.15	4	0	0	1	T_L350	;
T_J54	T_J182	5000	3.4034542052757835	3.1722116144796284	0.15	4	0	0	1	T_L518	;
T_J55	T_J64	6600	1.051714980389199	0.653505189079417	0.15	4	0	0	1	T_L64	;
T_J55	T_J48	5000	3.969059132207902	3.699387363058735	0.15	4	0	0	1	T_L55	;
T_J55	T_J65	5000	0.48009376930327535	0.44747451828861823	0.15	4	0	0	1	T_L65	;
T_J55	T_J51	6600	4.784918240843581	2.973209432231217	0.15	4	0	0	1	T_L288	;
T_J56	T_J69	5000	3.7363844218446265	3.482521386879026	0.15	4	0	0	1	T_L234	;
T_J56	T_J51	6600	2.6258045676871777	1.5060912092569378	0.15	4	0	0	1	T_L57	;
T_J56	T_J57	6600	4.342779982234442	2.4909023449301517	0.15	4	0	0	1	T_L290	;
T_J57	T_J58	6600	1.7850987364751785	1.0238848495221398	0.15	4	0	0	1	T_L354	;
T_J57	T_J66	5000	3.465438789149346	3.229984748778777	0.15	4	0	0	1	T_L235	;
T_J57	T_J56	6600	4.342779982234442	2.4909023449301517	0.15	4	0	0	1	T_L587	;
T_J58	T_J74	6600	3.066066644069596	1.7586137507927715	0.15	4	0	0	1	T_L216	;
T_J58	T_J57	6600	1.7850987364751785	1.0238848495221398	0.15	4	0	0	1	T_L58	;
T_J58	T_J44	6600	4.363340272519404	2.5026951770544503	0.15	4	0	0	1	T_L206	;
T_J59	T_J124	6600	10.070429843030173	5.776128980301693	0.15	4	0	0	1	T_L128	;
T_J59	T_J50	6600	1.1595686536274723	0.6650975389598365	0.15	4	0	0	1	T_L59	;
T_J59	T_J71	5000	3.489005238766605	3.2519500113264663	0.15	4	0	0	1	T_L69	;
T_J60	T_J29	5000	5.6428690309846985	5.2594727589779895	0.15	4	0	0	1	T_L510	;
T_J60	T_J61	6600	3.196475098269206	1.986196928286635	0.15	4	0	0	1	T_L357	;
T_J60	T_J46	6600	6.795818401072204	4.222724475692636	0.15	4	0	0	1	T_L60	;
T_J60	T_J77	5000	2.932346452442572	2.7331125712510405	0.15	4	0	0	1	T_L523	;
T_J61	T_J60	6600	3.196475098269206	1.986196928286635	0.15	4	0	0	1	T_L61	;
T_J61	T_J44	5000	4.04508628470115	3.770248964716558	0.15	4	0	0	1	T_L215	;
T_J61	T_J74	6600	3.527330190211538	2.1917806876219337	0.15	4	0	0	1	T_L219	;
T_J61	T_J63	5000	2.8320462786040266	2.639627142273694	0.15	4	0	0	1	T_L63	;
T_J62	T_J25	5000	10.394113589890715	9.687901133195975	0.15	4	0	0	1	T_L211	;
T_J62	T_J24	5000	6.039428124392613	5.629088239622943	0.15	4	0	0	1	T_L225	;
T_J62	T_J79	5000	3.572683229416972	3.32994262641908	0.15	4	0	0	1	T_L293	;
T_J62	T_J47	5000	3.07321194104321	2.864407165526941	0.15	4	0	0	1	T_L62	;
T_J63	T_J61	5000	2.8320462786040266	2.639627142273694	0.15	4	0	0	1	T_L359	;
T_J63	T_J81	5000	2.786365120644556	2.5970497220700426	0.15	4	0	0	1	T_L374	;
T_J63	T_J77	5000	4.22394777449203	3.9369579788758307	0.15	4	0	0	1	T_L373	;
T_J64	T_J178	6600	4.084407141036371	2.5379321496329106	0.15	4	0	0	1	T_L239	;
T_J64	T_J72	5000	3.2947494335124947	3.070892625376639	0.15	4	0	0	1	T_L73	;
T_J64	T_J55	6600	1.051714980389199	0.653505189079417	0.15	4	0	0	1	T_L360	;
T_J64	T_J76	5000	1.3190607510089967	1.2294391468728167	0.15	4	0	0	1	T_L74	;
T_J65	T_J68	5000	4.285216918566668	3.994064282860034	0.15	4	0	0	1	T_L528	;
T_J65	T_J70	5000	0.7837722136238053	0.7305199862274564	0.15	4	0	0	1	T_L364	;
T_J65	T_J55	5000	0.48009376930327535	0.44747451828861823	0.15	4	0	0	1	T_L361	;
T_J66	T_J67	5000	0.4547170788936833	0.42382200904387035	0.15	4	0	0	1	T_L362	;
T_J66	T_J57	5000	3.465438789149346	3.229984748778777	0.15	4	0	0	1	T_L531	;
T_J66	T_J69	5000	4.521544371589894	4.214334821578777	0.15	4	0	0	1	T_L533	;
T_J67	T_J75	5000	2.9011687206465107	2.7040531636752645	0.15	4	0	0	1	T_L72	;
T_J67	T_J90	6600	6.795458884702048	4.222501082646196	0.15	4	0	0	1	T_L236	;
T_J67	T_J66	5000	0.4547170788936833	0.42382200904387035	0.15	4	0	0	1	T_L66	;
T_J67	T_J74	6600	2.1673788312502835	1.34674635175282	0.15	4	0	0	1	T_L71	;
T_J68	T_J90	5000	2.700170464273198	2.516711432333852	0.15	4	0	0	1	T_L534	;
T_J68	T_J51	5000	3.776052004182354	3.5194938148361903	0.15	4	0	0	1	T_L529	;
T_J68	T_J69	5000	1.7286299048608789	1.611180738919964	0.15	4	0	0	1	T_L67	;
T_J68	T_J65	5000	4.285216918566668	3.994064282860034	0.15	4	0	0	1	T_L232	;
T_J69	T_J66	5000	4.521544371589894	4.214334821578777	0.15	4	0	0	1	T_L237	;
T_J69	T_J56	5000	3.7363844218446265	3.482521386879026	0.15	4	0	0	1	T_L530	;
T_J69	T_J68	5000	1.7286299048608789	1.611180738919964	0.15	4	0	0	1	T_L363	;
T_J70	T_J65	5000	0.7837722136238053	0.7305199862274564	0.15	4	0	0	1	T_L68	;
T_J71	T_J59	5000	3.489005238766605	3.2519500113264663	0.15	4	0	0	1	T_L365	;
T_J71	T_J89	5000	6.795547709029838	6.3338344132613695	0.15	4	0	0	1	T_L380	;
T_J71	T_J79	5000	7.864496569248309	7.330155146595587	0.15	4	0	0	1	T_L508	;
T_J72	T_J40	6600	5.2247248585163115	3.246492510061139	0.15	4	0	0	1	T_L542	;
T_J72	T_J64	5000	3.2947494335124947	3.070892625376639	0.15	4	0	0	1	T_L369	;
T_J72	T_J73	5000	0.8103425032881899	0.7552849974160288	0.15	4	0	0	1	T_L366	;
T_J72	T_J178	6600	2.741318010538889	1.70337551352656	0.15	4	0	0	1	T_L190	;
T_J73	T_J72	5000	0.8103425032881899	0.7552849974160288	0.15	4	0	0	1	T_L70	;
T_J73	T_J42	6600	5.187011800149774	2.9751311162500294	0.15	4	0	0	1	T_L578	;
T_J73	T_J92	6600	2.981865858112583	1.710318433958099	0.15	4	0	0	1	T_L382	;
T_J74	T_J58	6600	3.066066644069596	1.7586137507927715	0.15	4	0	0	1	T_L512	;
T_J74	T_J95	6600	3.6931721463937435	2.1183046797939937	0.15	4	0	0	1	T_L387	;
T_J74	T_J67	6600	2.1673788312502835	1.34674635175282	0.15	4	0	0	1	T_L367	;
T_J74	T_J61	6600	3.527330190211538	2.1917806876219337	0.15	4	0	0	1	T_L515	;
T_J75	T_J95	5000	2.1849452100382725	2.036492385160037	0.15	4	0	0	1	T_L385	;
T_J75	T_J96	5000	2.467115923816899	2.299491433047046	0.15	4	0	0	1	T_L90	;
T_J75	T_J91	5000	6.424012944157714	5.987543020686335	0.15	4	0	0	1	T_L230	;
T_J75	T_J67	5000	2.9011687206465107	2.7040531636752645	0.15	4	0	0	1	T_L368	;
T_J76	T_J64	5000	1.3190607510089967	1.2294391468728167	0.15	4	0	0	1	T_L370	;
T_J76	T_J88	5000	2.555333676135343	2.3817153625108416	0.15	4	0	0	1	T_L543	;
T_J77	T_J60	5000	2.932346452442572	2.7331125712510405	0.15	4	0	0	1	T_L227	;
T_J77	T_J47	5000	5.4230866341301365	5.054623147404115	0.15	4	0	0	1	T_L220	;
T_J77	T_J78	5000	2.641755939248389	2.462265794590066	0.15	4	0	0	1	T_L75	;
T_J77	T_J63	5000	4.22394777449203	3.9369579788758307	0.15	4	0	0	1	T_L77	;
T_J78	T_J80	5000	7.676749729308551	7.155164484075276	0.15	4	0	0	1	T_L223	;
T_J78	T_J81	5000	6.869226712729128	6.402507407572817	0.15	4	0	0	1	T_L95	;
T_J78	T_J77	5000	2.641755939248389	2.462265794590066	0.15	4	0	0	1	T_L371	;
T_J78	T_J102	5000	1.3931029894023272	1.2984506964418703	0.15	4	0	0	1	T_L99	;
T_J79	T_J80	5000	1.8889175883992888	1.7605779162318818	0.15	4	0	0	1	T_L372	;
T_J79	T_J62	5000	3.572683229416972	3.32994262641908	0.15	4	0	0	1	T_L590	;
T_J79	T_J71	5000	7.864496569248309	7.330155146595587	0.15	4	0	0	1	T_L212	;
T_J80	T_J93	5000	4.185308520541319	3.9009440110759206	0.15	4	0	0	1	T_L87	;
T_J80	T_J78	5000	7.676749729308551	7.155164484075276	0.15	4	0	0	1	T_L519	;
T_J80	T_J79	5000	1.8889175883992888	1.7605779162318818	0.15	4	0	0	1	T_L76	;
T_J81	T_J63	5000	2.786365120644556	2.5970497220700426	0.15	4	0	0	1	T_L78	;
T_J81	T_J95	5000	1.233468306000458	1.149662152151716	0.15	4	0	0	1	T_L389	;
T_J81	T_J78	5000	6.869226712729128	6.402507407572817	0.15	4	0	0	1	T_L391	;
T_J82	T_J84	6600	1.1535689423794855	0.7167942872952833	0.15	4	0	0	1	T_L80	;
T_J82	T_J49	6600	6.161354183867341	3.8284868105838337	0.15	4	0	0	1	T_L579	;
T_J82	T_J83	6600	1.3421628980890519	0.8339811021484923	0.15	4	0	0	1	T_L375	;
T_J83	T_J85	6600	3.7971989854997745	2.177971689986751	0.15	4	0	0	1	T_L81	;
T_J83	T_J43	6600	7.4831646551814	4.292142927650513	0.15	4	0	0	1	T_L580	;
T_J83	T_J82	6600	1.3421628980890519	0.8339811021484923	0.15	4	0	0	1	T_L79	;
T_J83	T_J86	5000	3.552819868016312	3.311428851313746	0.15	4	0	0	1	T_L82	;
T_J84	T_J107	6600	1.9003393629227683	1.1808157702786835	0.15	4	0	0	1	T_L400	;
T_J84	T_J82	6600	1.1535689423794855	0.7167942872952833	0.15	4	0	0	1	T_L376	;
T_J84	T_J92	5000	4.429797450362118	4.1288215072934396	0.15	4	0	0	1	T_L588	;
T_J85	T_J83	6600	3.7971989854997745	2.177971689986751	0.15	4	0	0	1	T_L377	;
T_J86	T_J110	5000	0.618757972127465	0.5767173898482226	0.15	4	0	0	1	T_L405	;
T_J86	T_J83	5000	3.552819868016312	3.311428851313746	0.15	4	0	0	1	T_L378	;
T_J86	T_J108	5000	0.4029744381847729	0.3755949444439658	0.15	4	0	0	1	T_L403	;
T_J87	T_J88	6600	4.505452599049925	2.799557586924251	0.15	4	0	0	1	T_L379	;
T_J88	T_J76	5000	2.555333676135343	2.3817153625108416	0.15	4	0	0	1	T_L247	;
T_J88	T_J87	6600	4.505452599049925	2.799557586924251	0.15	4	0	0	1	T_L83	;
T_J88	T_J94	6600	0.9418483894264098	0.5852372755862777	0.15	4	0	0	1	T_L189	;
T_J89	T_J93	5000	7.143320448148178	6.657978255279422	0.15	4	0	0	1	T_L224	;
T_J89	T_J71	5000	6.795547709029838	6.3338344132613695	0.15	4	0	0	1	T_L84	;
T_J89	T_J124	5000	2.8140553539721407	2.6228585840295344	0.15	4	0	0	1	T_L129	;
T_J89	T_J125	5000	6.626375403761288	6.176156266515833	0.15	4	0	0	1	T_L433	;
T_J90	T_J94	6600	4.512356571453152	2.8038475151604163	0.15	4	0	0	1	T_L88	;
T_J90	T_J91	5000	0.6000064267899208	0.5592398901313198	0.15	4	0	0	1	T_L85	;
T_J90	T_J68	5000	2.700170464273198	2.516711432333852	0.15	4	0	0	1	T_L238	;
T_J90	T_J67	6600	6.795458884702048	4.222501082646196	0.15	4	0	0	1	T_L532	;
T_J91	T_J90	5000	0.6000064267899208	0.5592398901313198	0.15	4	0	0	1	T_L381	;
T_J91	T_J99	5000	2.1755215206349985	2.0277089741977345	0.15	4	0	0	1	T_L392	;
T_J91	T_J75	5000	6.424012944157714	5.987543020686335	0.15	4	0	0	1	T_L526	;
T_J92	T_J98	6600	0.7779689039063886	0.4462221376515845	0.15	4	0	0	1	T_L94	;
T_J92	T_J73	6600	2.981865858112583	1.710318433958099	0.15	4	0	0	1	T_L86	;
T_J92	T_J178	6600	0.5220409319580407	0.3243810959316997	0.15	4	0	0	1	T_L191	;
T_J92	T_J84	5000	4.429797450362118	4.1288215072934396	0.15	4	0	0	1	T_L291	;
T_J93	T_J150	5000	6.899214601032635	6.430457813787374	0.15	4	0	0	1	T_L228	;
T_J93	T_J80	5000	4.185308520541319	3.9009440110759206	0.15	4	0	0	1	T_L383	;
T_J93	T_J105	5000	8.521331058147208	7.942362001397984	0.15	4	0	0	1	T_L229	;
T_J93	T_J89	5000	7.143320448148178	6.657978255279422	0.15	4	0	0	1	T_L520	;
T_J94	T_J90	6600	4.512356571453152	2.8038475151604163	0.15	4	0	0	1	T_L384	;
T_J94	T_J101	5000	4.477966149406095	4.173717456333922	0.15	4	0	0	1	T_L394	;
T_J94	T_J88	6600	0.9418483894264098	0.5852372755862777	0.15	4	0	0	1	T_L485	;
T_J94	T_J100	6600	1.2110650259498834	0.752520686239505	0.15	4	0	0	1	T_L393	;
T_J95	T_J74	6600	3.6931721463937435	2.1183046797939937	0.15	4	0	0	1	T_L91	;
T_J95	T_J75	5000	2.1849452100382725	2.036492385160037	0.15	4	0	0	1	T_L89	;
T_J95	T_J81	5000	1.233468306000458	1.149662152151716	0.15	4	0	0	1	T_L93	;
T_J95	T_J97	6600	3.7490818835393767	2.1503730083600727	0.15	4	0	0	1	T_L388	;
T_J96	T_J97	6600	0.5192309600545726	0.3226350608800698	0.15	4	0	0	1	T_L414	;
T_J96	T_J99	6600	6.345160370977433	3.942698644874618	0.15	4	0	0	1	T_L544	;
T_J96	T_J75	5000	2.467115923816899	2.299491433047046	0.15	4	0	0	1	T_L386	;
T_J97	T_J95	6600	3.7490818835393767	2.1503730083600727	0.15	4	0	0	1	T_L92	;
T_J97	T_J121	6600	0.15711775839298908	0.09011854029268618	0.15	4	0	0	1	T_L123	;
T_J97	T_J96	6600	0.5192309600545726	0.3226350608800698	0.15	4	0	0	1	T_L118	;
T_J97	T_J129	6600	6.522007712083639	3.740849034521652	0.15	4	0	0	1	T_L280	;
T_J98	T_J103	6600	0.6993640241480585	0.40113648281437225	0.15	4	0	0	1	T_L187	;
T_J98	T_J92	6600	0.7779689039063886	0.4462221376515845	0.15	4	0	0	1	T_L390	;
T_J99	T_J177	6600	0.21948859906128412	0.13638385028730918	0.15	4	0	0	1	T_L188	;
T_J99	T_J96	6600	6.345160370977433	3.942698644874618	0.15	4	0	0	1	T_L248	;
T_J99	T_J111	6600	0.38945076876991996	0.24199341364133392	0.15	4	0	0	1	T_L110	;
T_J99	T_J91	5000	2.1755215206349985	2.0277089741977345	0.15	4	0	0	1	T_L96	;
T_J100	T_J111	6600	3.7954631245531902	2.35839071716674	0.15	4	0	0	1	T_L408	;
T_J100	T_J113	5000	0.28454763728845356	0.2652144748943456	0.15	4	0	0	1	T_L113	;
T_J100	T_J94	6600	1.2110650259498834	0.752520686239505	0.15	4	0	0	1	T_L97	;
T_J101	T_J103	6600	0.2695611602136547	0.15461306555364818	0.15	4	0	0	1	T_L102	;
T_J101	T_J114	6600	0.6958029394404767	0.3990939399536016	0.15	4	0	0	1	T_L410	;
T_J101	T_J106	5000	6.981492463431482	6.507145430242325	0.15	4	0	0	1	T_L285	;
T_J101	T_J106	5000	6.981492463431482	6.507145430242325	0.15	4	0	0	1	T_L285	;
T_J101	T_J94	5000	4.477966149406095	4.173717456333922	0.15	4	0	0	1	T_L98	;
T_J102	T_J105	5000	1.448198249362726	1.3498025916071497	0.15	4	0	0	1	T_L101	;
T_J102	T_J78	5000	1.3931029894023272	1.2984506964418703	0.15	4	0	0	1	T_L395	;
T_J103	T_J104	6600	2.4617497484789364	1.5296599029621052	0.15	4	0	0	1	T_L396	;
T_J103	T_J98	6600	0.6993640241480585	0.40113648281437225	0.15	4	0	0	1	T_L483	;
T_J103	T_J101	6600	0.2695611602136547	0.15461306555364818	0.15	4	0	0	1	T_L398	;
T_J104	T_J107	6600	0.5685394161086966	0.35327390552687693	0.15	4	0	0	1	T_L105	;
T_J104	T_J106	5000	0.40255222749370234	0.375201420224984	0.15	4	0	0	1	T_L103	;
T_J104	T_J103	6600	2.4617497484789364	1.5296599029621052	0.15	4	0	0	1	T_L100	;
T_J105	T_J102	5000	1.448198249362726	1.3498025916071497	0.15	4	0	0	1	T_L397	;
T_J105	T_J129	5000	6.918442664534509	6.448379455356708	0.15	4	0	0	1	T_L430	;
T_J105	T_J93	5000	8.521331058147208	7.942362001397984	0.15	4	0	0	1	T_L525	;
T_J105	T_J139	5000	5.870742905937072	5.471864085307537	0.15	4	0	0	1	T_L571	;
T_J106	T_J104	5000	0.40255222749370234	0.375201420224984	0.15	4	0	0	1	T_L399	;
T_J106	T_J101	5000	6.981492463431482	6.507145430242325	0.15	4	0	0	1	T_L581	;	;
T_J106	T_J109	5000	0.7084046342627073	0.660273143994679	0.15	4	0	0	1	T_L411	;
T_J107	T_J84	6600	1.9003393629227683	1.1808157702786835	0.15	4	0	0	1	T_L104	;
T_J107	T_J104	6600	0.5685394161086966	0.35327390552687693	0.15	4	0	0	1	T_L401	;
T_J107	T_J108	5000	0.16632679707781567	0.15502597234055912	0.15	4	0	0	1	T_L106	;
T_J108	T_J107	5000	0.16632679707781567	0.15502597234055912	0.15	4	0	0	1	T_L402	;
T_J108	T_J109	5000	0.3844444211896997	0.35832392165859733	0.15	4	0	0	1	T_L404	;
T_J108	T_J86	5000	0.4029744381847729	0.3755949444439658	0.15	4	0	0	1	T_L107	;
T_J109	T_J106	5000	0.7084046342627073	0.660273143994679	0.15	4	0	0	1	T_L115	;
T_J109	T_J108	5000	0.3844444211896997	0.35832392165859733	0.15	4	0	0	1	T_L108	;
T_J109	T_J118	5000	0.4742661028836873	0.4420428039224096	0.15	4	0	0	1	T_L125	;
T_J110	T_J86	5000	0.618757972127465	0.5767173898482226	0.15	4	0	0	1	T_L109	;
T_J110	T_J117	6600	8.346731918167649	4.787461992668077	0.15	4	0	0	1	T_L119	;
T_J110	T_J118	6600	0.483167474748853	0.2771319294943103	0.15	4	0	0	1	T_L120	;
T_J111	T_J112	5000	1.87740722727133	1.7498496093252203	0.15	4	0	0	1	T_L111	;
T_J111	T_J100	6600	3.7954631245531902	2.35839071716674	0.15	4	0	0	1	T_L112	;
T_J111	T_J99	6600	0.38945076876991996	0.24199341364133392	0.15	4	0	0	1	T_L406	;
T_J112	T_J111	5000	1.87740722727133	1.7498496093252203	0.15	4	0	0	1	T_L407	;
T_J112	T_J135	5000	1.5270377417715384	1.423285452963484	0.15	4	0	0	1	T_L186	;
T_J113	T_J115	5000	1.7729267309706844	1.6524678836249778	0.15	4	0	0	1	T_L412	;
T_J113	T_J116	5000	0.9413121395808405	0.8773560982252295	0.15	4	0	0	1	T_L117	;
T_J113	T_J100	5000	0.28454763728845356	0.2652144748943456	0.15	4	0	0	1	T_L409	;
T_J114	T_J123	6600	1.937221299194342	1.1111382792938655	0.15	4	0	0	1	T_L583	;
T_J114	T_J101	6600	0.6958029394404767	0.3990939399536016	0.15	4	0	0	1	T_L114	;
T_J114	T_J119	6600	0.6727149811072336	0.385851305100538	0.15	4	0	0	1	T_L127	;
T_J115	T_J120	5000	1.0434017613631663	0.972509393789988	0.15	4	0	0	1	T_L418	;
T_J115	T_J119	5000	2.6651345775222954	2.4840560063544097	0.15	4	0	0	1	T_L121	;
T_J115	T_J113	5000	1.7729267309706844	1.6524678836249778	0.15	4	0	0	1	T_L116	;
T_J116	T_J120	5000	1.8258095462472486	1.7017576553417986	0.15	4	0	0	1	T_L427	;
T_J116	T_J113	5000	0.9413121395808405	0.8773560982252295	0.15	4	0	0	1	T_L413	;
T_J116	T_J135	5000	4.8331493627777595	4.504768279047869	0.15	4	0	0	1	T_L549	;
T_J117	T_J110	6600	8.346731918167649	4.787461992668077	0.15	4	0	0	1	T_L415	;
T_J118	T_J110	6600	0.483167474748853	0.2771319294943103	0.15	4	0	0	1	T_L416	;
T_J118	T_J132	6600	7.132301723185112	4.4318054540372565	0.15	4	0	0	1	T_L555	;
T_J118	T_J123	6600	0.9747982077660894	0.5591181573764518	0.15	4	0	0	1	T_L422	;
T_J118	T_J109	5000	0.4742661028836873	0.4420428039224096	0.15	4	0	0	1	T_L421	;
T_J119	T_J123	6600	2.40748089363538	1.4959388103591098	0.15	4	0	0	1	T_L584	;
T_J119	T_J131	6600	5.040107789588794	2.890870908299611	0.15	4	0	0	1	T_L556	;
T_J119	T_J114	6600	0.6727149811072336	0.385851305100538	0.15	4	0	0	1	T_L423	;
T_J119	T_J115	5000	2.6651345775222954	2.4840560063544097	0.15	4	0	0	1	T_L417	;
T_J120	T_J115	5000	1.0434017613631663	0.972509393789988	0.15	4	0	0	1	T_L122	;
T_J120	T_J116	5000	1.8258095462472486	1.7017576553417986	0.15	4	0	0	1	T_L131	;
T_J120	T_J126	5000	1.7812763616646985	1.660250211185933	0.15	4	0	0	1	T_L132	;
T_J121	T_J185	6600	6.542460740453052	4.0652953727560535	0.15	4	0	0	1	T_L249	;
T_J121	T_J122	6600	3.3428686595224115	2.0771616418361005	0.15	4	0	0	1	T_L420	;
T_J121	T_J97	6600	0.15711775839298908	0.09011854029268618	0.15	4	0	0	1	T_L419	;
T_J121	T_J127	6600	2.7728386102454015	1.5904260000801187	0.15	4	0	0	1	T_L546	;
T_J122	T_J130	5000	0.2978874861286455	0.2776479677148639	0.15	4	0	0	1	T_L135	;
T_J122	T_J121	6600	3.3428686595224115	2.0771616418361005	0.15	4	0	0	1	T_L124	;
T_J122	T_J145	6600	6.0208273441393105	3.7411675076551876	0.15	4	0	0	1	T_L547	;
T_J123	T_J118	6600	0.9747982077660894	0.5591181573764518	0.15	4	0	0	1	T_L126	;
T_J123	T_J119	6600	2.40748089363538	1.4959388103591098	0.15	4	0	0	1	T_L287	;