[TITLE]
Pipe	Map	Name:	Pipenet6.shp	
Node	Map	Name:	Epanmap.shp	
Mon	Jul	18	13:25:42	2005

[JUNCTIONS]
;ID              	Elev        	Demand      	Pattern         
 W_JIN0             	1036        	0           	3               	;
 W_JTN1             	1036        	3.54166668  	3               	;
 W_JIN2             	1038        	0           	3               	;
 W_JTN3             	1037        	4.88541666  	3               	;
 W_JIN4             	1038        	0           	3               	;
 W_JTN5             	1038        	0.54444444  	3               	;
 W_JIN6             	1038        	0           	3               	;
 W_JTN7             	1038        	5.53680558  	3               	;
 W_JIN8             	1038        	0           	3               	;
 W_JTN9             	1038        	0.54444444  	3               	;
 W_JIN10            	1036        	0           	3               	;
 W_JTN11            	1036        	9.11805558  	3               	;
 W_JTN13            	1038        	0.54444444  	3               	;
 W_JTN15            	1038        	5.53680558  	3               	;
 W_JIN16            	1037        	0           	3               	;
 W_JTN17            	1037        	3.25694442  	3               	;
 W_JTN19            	1036        	6.5138889   	3               	;
 W_JTN21            	1029        	3.90833334  	3               	;
 W_JTN23            	1029        	7.01388888  	3               	;
 W_JTN25            	1024        	0.54444444  	3               	;
 W_JTN27            	1022        	9.81944442  	3               	;
 W_JTN29            	1020        	4.5597222   	3               	;
 W_JTN31            	1031        	0.62500002  	2               	;
 W_JTN33            	1035        	0.375       	2               	;
 W_JIN34            	1036        	0           	2               	;
 W_JTN35            	1036        	0.25000002  	2               	;
 W_JTN37            	1037        	0.25000002  	2               	;
 W_JTN39            	1037        	0.12499998  	2               	;
 W_JTN41            	1037        	0.12499998  	2               	;
 W_JTN43            	1037        	0.75        	2               	;
 W_JIN44            	1037        	0           	2               	;
 W_JTN45            	1037        	0.49999998  	2               	;
 W_JTN47            	1037        	0.75        	2               	;
 W_JTN49            	1036        	0.25000002  	2               	;
 W_JTN51            	1036        	0.25000002  	2               	;
 W_JIN52            	1035        	0           	2               	;
 W_JTN53            	1035        	0.375       	2               	;
 W_JTN55            	1033        	0.375       	2               	;
 W_JTN57            	1032        	0.12499998  	2               	;
 W_JIN58            	1027        	0           	2               	;
 W_JTN59            	1031        	0.62500002  	2               	;
 W_JTN61            	1027        	0.49999998  	2               	;
 W_JTN63            	1038        	0.62500002  	2               	;
 W_JIN64            	1037        	0           	2               	;
 W_JTN65            	1037        	0.12499998  	2               	;
 W_JTN67            	1037        	0.375       	2               	;
 W_JIN68            	1036        	0           	2               	;
 W_JTN69            	1036        	0.12499998  	2               	;
 W_JTN71            	1036        	0.25000002  	2               	;
 W_JIN72            	1035        	0           	2               	;
 W_JTN73            	1035        	0.62500002  	2               	;
 W_JIN74            	1033        	0           	2               	;
 W_JTN75            	1033        	0.12499998  	2               	;
 W_JTN77            	1031        	0.62500002  	2               	;
 W_JTN79            	1027        	0.25000002  	2               	;
 W_JIN80            	1024        	0           	2               	;
 W_JTN81            	1025        	0.49999998  	2               	;
 W_JTN83            	1023        	0.375       	2               	;
 W_JTN85            	1025        	0.62500002  	2               	;
 W_JTN87            	1023        	0.49999998  	2               	;
 W_JTN89            	1022        	0.62500002  	2               	;
 W_JIN90            	1020        	0           	2               	;
 W_JTN91            	1020        	0.12499998  	2               	;
 W_JTN93            	1022        	0.75        	2               	;
 W_JTN95            	1019        	0.25000002  	2               	;
 W_JTN97            	1018        	0.25000002  	2               	;
 W_JIN98            	1018        	0           	2               	;
 W_JTN99            	1017        	0.12499998  	2               	;
 W_JTN101           	1018        	0.49999998  	2               	;
 W_JTN103           	1017        	0.25000002  	2               	;
 W_JIN104           	1016        	0           	2               	;
 W_JTN105           	1016        	0.25000002  	2               	;
 W_JTN107           	1016        	0.12499998  	2               	;
 W_JTN109           	1015        	0.49999998  	2               	;
 W_JIN110           	1032        	0           	2               	;
 W_JTN111           	1035        	0.12499998  	2               	;
 W_JTN113           	1032        	0.375       	2               	;
 W_JTN115           	1037        	0.62500002  	2               	;
 W_JTN117           	1036        	0.375       	2               	;
 W_JIN118           	1038        	0           	2               	;
 W_JTN119           	1038        	0.62500002  	2               	;
 W_JIN120           	1037        	0           	2               	;
 W_JTN121           	1037        	0.12499998  	2               	;
 W_JIN122           	1038        	0           	2               	;
 W_JTN123           	1038        	0.49999998  	2               	;
 W_JTN125           	1023        	0.49999998  	2               	;
 W_JTN127           	1024        	0.25000002  	2               	;
 W_JTN129           	1025        	0.49999998  	2               	;
 W_JTN131           	1024        	0.75        	2               	;
 W_JTN133           	1025        	0.62500002  	2               	;
 W_JTN135           	1027        	0.49999998  	2               	;
 W_JTN137           	1027        	0.49999998  	2               	;
 W_JTN139           	1028        	0.49999998  	2               	;
 W_JIN140           	1030        	0           	2               	;
 W_JTN141           	1029        	0.25000002  	2               	;
 W_JTN143           	1030        	0.12499998  	2               	;
 W_JTN145           	1035        	0.25000002  	2               	;
 W_JTN147           	1036        	0.375       	2               	;
 W_JTN149           	1031        	0.75        	2               	;
 W_JIN150           	1036        	0           	2               	;
 W_JTN151           	1037        	0.75        	2               	;
 W_JIN152           	1038        	0           	2               	;
 W_JTN153           	1038        	0.75        	2               	;
 W_JTN155           	1038        	0.62500002  	2               	;
 W_JTN157           	1039        	0.25000002  	2               	;
 W_JTN159           	1037        	0.375       	2               	;
 W_JTN161           	1039        	0.25000002  	2               	;
 W_JIN162           	1040        	0           	2               	;
 W_JTN163           	1040        	0.62500002  	2               	;
 W_JIN164           	1039        	0           	2               	;
 W_JTN165           	1039        	0.75        	2               	;
 W_JTN166           	1040        	0.25000002  	2               	;
 W_JTN167           	1040        	0.375       	2               	;
 W_JTN169           	1040        	0.75        	2               	;
 W_JTN170           	1040        	0.62500002  	2               	;
 W_JTN171           	1040        	0.62500002  	2               	;
 W_JIN172           	1040        	0           	2               	;
 W_JTN173           	1040        	0.75        	2               	;
 W_JIN174           	1040        	0           	2               	;
 W_JTN175           	1040        	0.375       	2               	;
 W_JIN176           	1040        	0           	2               	;
 W_JTN177           	1040        	0.375       	2               	;
 W_JIN178           	1040        	0           	2               	;
 W_JTN179           	1040        	0.49999998  	2               	;
 W_JTN181           	1040        	0.375       	2               	;
 W_JTN182           	1040        	0.49999998  	2               	;
 W_JTN183           	1039        	0.49999998  	2               	;
 W_JTN184           	1039        	0.375       	2               	;
 W_JTN186           	1039        	0.49999998  	2               	;
 W_JTN187           	1038        	0.12499998  	2               	;
 W_JTN188           	1039        	0.375       	2               	;
 W_JTN189           	1038        	0.62500002  	2               	;
 W_JTN191           	1039        	0.62500002  	2               	;
 W_JTN193           	1039        	0.75        	2               	;
 W_JTN195           	1040        	0.375       	2               	;
 W_JTN197           	1040        	0.375       	2               	;
 W_JTN199           	1040        	0.375       	2               	;
 W_JTN201           	1040        	0.25000002  	2               	;
 W_JTN203           	1040        	0.62500002  	2               	;
 W_JTN205           	1040        	0.25000002  	2               	;
 W_JTN207           	1040        	0.49999998  	2               	;
 W_JTN209           	1040        	0.375       	2               	;
 W_JTN211           	1040        	0.25000002  	2               	;
 W_JTN213           	1039        	0.375       	2               	;
 W_JTN215           	1039        	0.75        	2               	;
 W_JTN217           	1040        	0.375       	2               	;
 W_JTN219           	1039        	0.62500002  	2               	;
 W_JTN221           	1037        	0.75        	2               	;
 W_JTN222           	1038        	0.49999998  	2               	;
 W_JTN224           	1039        	0.62500002  	2               	;
 W_JTN226           	1036        	0.12499998  	2               	;
 W_JTN227           	1035        	0.75        	2               	;
 W_JTN228           	1035        	0.375       	2               	;
 W_JTN230           	1037        	0.25000002  	2               	;
 W_JTN232           	1033        	0.62500002  	2               	;
 W_JTN234           	1032        	0.75        	2               	;
 W_JTN236           	1031        	0.75        	2               	;
 W_JTN238           	1028        	0.75        	2               	;
 W_JTN239           	1030        	0.49999998  	2               	;
 W_JTN240           	1028        	0.62500002  	2               	;
 W_JTN242           	1026        	0.12499998  	2               	;
 W_JTN243           	1025        	0.25000002  	2               	;
 W_JTN244           	1024        	0.62500002  	2               	;
 W_JTN245           	1041        	0.49999998  	2               	;
 W_JIN246           	1041        	0           	2               	;
 W_JTN247           	1041        	0.12499998  	2               	;
 W_JTN248           	1040        	0.25000002  	2               	;
 W_JTN249           	1040        	0.49999998  	2               	;
 W_JIN250           	1040        	0           	2               	;
 W_JTN251           	1040        	0.25000002  	2               	;
 W_JTN252           	1040        	0.75        	2               	;
 W_JTN253           	1040        	0.25000002  	2               	;
 W_JTN254           	1040        	0.12499998  	2               	;
 W_JIN255           	1039        	0           	2               	;
 W_JTN256           	1039        	0.375       	2               	;
 W_JTN257           	1039        	0.49999998  	2               	;
 W_JTN258           	1038        	0.375       	2               	;
 W_JTN259           	1039        	0.49999998  	2               	;
 W_JTN261           	1033        	0.25000002  	2               	;
 W_JTN262           	1036        	0.25000002  	2               	;
 W_JTN263           	1037        	0.25000002  	2               	;
 W_JTN264           	1036        	0.25000002  	2               	;
 W_JIN265           	1031        	0           	2               	;
 W_JTN266           	1030        	0.62500002  	2               	;
 W_JTN267           	1031        	0.62500002  	2               	;
 W_JTN268           	1030        	0.62500002  	2               	;
 W_JTN269           	1032        	0.62500002  	2               	;
 W_JTN271           	1027        	0.75        	2               	;
 W_JTN272           	1026        	0.75        	2               	;
 W_JTN273           	1028        	0.62500002  	2               	;
 W_JTN274           	1028        	0.62500002  	2               	;
 W_JTN276           	1020        	0.75        	2               	;
 W_JTN278           	1019        	0.75        	2               	;
 W_JTN280           	1019        	0.375       	2               	;
 W_JTN282           	1020        	0.12499998  	2               	;
 W_JTN284           	1020        	0.49999998  	2               	;
 W_JTN286           	1022        	0.12499998  	2               	;
 W_JTN288           	1022        	0.75        	2               	;
 W_JTN290           	1024        	0.75        	2               	;
 W_JTN291           	1020        	0.49999998  	2               	;
 W_JTN293           	1020        	0.12499998  	2               	;
 W_JTN294           	1020        	0.49999998  	2               	;
 W_JTN295           	1020        	0.12499998  	2               	;
 W_JTN297           	1020        	0.62500002  	2               	;
 W_JTN299           	1019        	0.49999998  	2               	;
 W_JTN300           	1019        	0.62500002  	2               	;
 W_JTN302           	1025        	0.49999998  	2               	;
 W_JTN303           	1024        	0.49999998  	2               	;
 W_JTN304           	1025        	0.25000002  	2               	;
 W_JTN305           	1026        	0.25000002  	2               	;
 W_JTN307           	1025        	0.75        	2               	;
 W_JTN308           	1023        	0.75        	2               	;
 W_JTN309           	1023        	0.25000002  	2               	;
 W_JTN310           	1025        	0.25000002  	2               	;
 W_JIN311           	1027        	0           	2               	;
 W_JTN312           	1027        	0.75        	2               	;
 W_JTN313           	1026        	0.75        	2               	;
 W_JTN314           	1027        	0.49999998  	2               	;
 W_JTN315           	1027        	0.49999998  	2               	;
 W_JIN316           	1027        	0           	2               	;
 W_JTN317           	1027        	0.25000002  	2               	;
 W_JTN318           	1026        	0.25000002  	2               	;
 W_JTN319           	1027        	0.49999998  	2               	;
 W_JTN320           	1028        	0.49999998  	2               	;
 W_JIN321           	1029        	0           	2               	;
 W_JTN322           	1029        	0.25000002  	2               	;
 W_JTN323           	1029        	0.25000002  	2               	;
 W_JTN324           	1030        	0.49999998  	2               	;
 W_JTN325           	1030        	0.49999998  	2               	;
 W_JIN326           	1032        	0           	2               	;
 W_JTN327           	1032        	0.75        	2               	;
 W_JTN328           	1031        	0.75        	2               	;
 W_JTN329           	1033        	0.25000002  	2               	;
 W_JTN330           	1033        	0.25000002  	2               	;
 W_JIN331           	1036        	0           	2               	;
 W_JTN332           	1036        	0.12499998  	2               	;
 W_JTN333           	1035        	0.12499998  	2               	;
 W_JTN334           	1037        	0.12499998  	2               	;
 W_JTN335           	1037        	0.12499998  	2               	;
 W_JIN336           	1039        	0           	2               	;
 W_JTN337           	1039        	0.375       	2               	;
 W_JTN338           	1038        	0.375       	2               	;
 W_JTN339           	1039        	0.49999998  	2               	;
 W_JTN340           	1040        	0.49999998  	2               	;
 W_JIN341           	1041        	0           	2               	;
 W_JTN342           	1041        	0.12499998  	2               	;
 W_JTN343           	1040        	0.75        	2               	;
 W_JTN344           	1042        	0.49999998  	2               	;
 W_JTN345           	1043        	0.75        	2               	;
 W_JIN346           	1044        	0           	2               	;
 W_JTN347           	1043        	0.49999998  	2               	;
 W_JTN348           	1044        	0.12499998  	2               	;
 W_JTN349           	1044        	0.62500002  	2               	;
 W_JIN350           	1044        	0           	2               	;
 W_JTN351           	1044        	0.62500002  	2               	;
 W_JIN352           	1045        	0           	2               	;
 W_JTN353           	1045        	0.25000002  	2               	;
 W_JTN354           	1045        	0.25000002  	2               	;
 W_JIN355           	1044        	0           	2               	;
 W_JTN356           	1044        	0.25000002  	2               	;
 W_JTN357           	1044        	0.12499998  	2               	;
 W_JIN358           	1043        	0           	2               	;
 W_JTN359           	1043        	0.12499998  	2               	;
 W_JTN360           	1040        	0.12499998  	2               	;
 W_JIN361           	1037        	0           	2               	;
 W_JTN362           	1038        	0.12499998  	2               	;
 W_JTN363           	1036        	0.25000002  	2               	;
 W_JIN364           	1033        	0           	2               	;
 W_JTN365           	1033        	0.62500002  	2               	;
 W_JTN366           	1032        	0.25000002  	2               	;
 W_JIN367           	1030        	0           	2               	;
 W_JTN368           	1031        	0.25000002  	2               	;
 W_JTN369           	1029        	0.12499998  	2               	;
 W_JIN370           	1028        	0           	2               	;
 W_JTN371           	1028        	0.375       	2               	;
 W_JTN372           	1027        	0.75        	2               	;
 W_JIN373           	1027        	0           	2               	;
 W_JTN374           	1027        	0.25000002  	2               	;
 W_JTN375           	1027        	0.75        	2               	;
 W_JTN379           	1044        	18.75       	2               	;
 W_JTN381           	1043        	18.75       	2               	;
 W_JTN383           	1040        	18.75       	2               	;
 W_JTN385           	1039        	18.75       	2               	;
 W_JTN387           	1044        	18.75       	2               	;
 W_JTN389           	1043        	18.75       	2               	;
 W_JTN391           	1041        	18.75       	2               	;
 W_JTN393           	1040        	18.75       	2               	;
 W_JTN395           	1045        	21.87499998 	2               	;
 W_JTN397           	1044        	21.87499998 	2               	;
 W_JTN399           	1043        	21.87499998 	2               	;
 W_JTN401           	1040        	21.87499998 	2               	;
 W_JTN403           	1044        	21.87499998 	2               	;
 W_JTN405           	1043        	21.87499998 	2               	;
 W_JTN407           	1042        	21.87499998 	2               	;
 W_JTN409           	1040        	21.87499998 	2               	;
 W_JTN411           	1030        	0.12499998  	2               	;
 W_JIN412           	1027        	0           	2               	;
 W_JTN413           	1028        	0.49999998  	2               	;
 W_JIN414           	1030        	0           	2               	;
 W_JTN415           	1031        	0.375       	2               	;
 W_JTN416           	1030        	0.12499998  	2               	;
 W_JIN417           	1033        	0           	2               	;
 W_JTN418           	1036        	0.49999998  	2               	;
 W_JTN420           	1036        	0.25000002  	2               	;
 W_JTN422           	1036        	0.62500002  	2               	;
 W_JIN423           	1035        	0           	2               	;
 W_JTN424           	1036        	0.25000002  	2               	;
 W_JTN426           	1036        	0.75        	2               	;
 W_JIN427           	1035        	0           	2               	;
 W_JTN428           	1036        	0.49999998  	2               	;
 W_JTN430           	1033        	0.25000002  	2               	;
 W_JIN431           	1033        	0           	2               	;
 W_JTN432           	1032        	0.49999998  	2               	;
 W_JTN434           	1031        	0.75        	2               	;
 W_JIN435           	1031        	0           	2               	;
 W_JTN436           	1030        	0.375       	2               	;
 W_JTN438           	1029        	0.62500002  	2               	;
 W_JTN440           	1028        	0.12499998  	2               	;
 W_JIN441           	1015        	0           	2               	;
 W_JTN442           	1015        	0.375       	2               	;
 W_JTN444           	1014        	0.62500002  	2               	;
 W_JTN446           	1015        	0.12499998  	2               	;
 W_JIN447           	1015        	0           	2               	;
 W_JTN448           	1015        	0.62500002  	2               	;
 W_JIN449           	1018        	0           	2               	;
 W_JTN450           	1016        	0.62500002  	2               	;
 W_JTN452           	1018        	0.25000002  	2               	;
 W_JTN454           	1020        	0.75        	2               	;
 W_JIN455           	1022        	0           	2               	;
 W_JTN456           	1022        	0.375       	2               	;
 W_JIN457           	1033        	0           	2               	;
 W_JTN458           	1029        	100.0002    	2               	;
 W_JTN459           	1029        	49.998      	2               	;
 W_JTN460           	1030        	49.9998     	2               	;
 W_JIN461           	1028        	0           	5               	;
 W_JTN462           	1027        	0.34722222  	5               	;
 W_JIN463           	1028        	0           	5               	;
 W_JTN464           	1028        	0.35625     	5               	;
 W_JTN466           	1026        	0.375       	2               	;
 W_JIN467           	1025        	0           	2               	;
 W_JTN468           	1025        	0.375       	2               	;
 W_JTN469           	1027        	0.375       	2               	;
 W_JTN470           	1025        	0.375       	2               	;
 W_JTN472           	1025        	0.49999998  	2               	;
 W_JTN474           	1025        	0.375       	2               	;
 W_JTN476           	1025        	0.62500002  	2               	;
 W_JTN478           	1025        	0.49999998  	2               	;
 W_JTN479           	1025        	0.375       	2               	;
 W_JTN480           	1025        	0.62500002  	2               	;
 W_JTN482           	1025        	0.375       	2               	;
 W_JTN484           	1026        	0.62500002  	2               	;
 W_JIN485           	1027        	0           	5               	;
 W_JTN486           	1026        	0.49999998  	2               	;
 W_JTN488           	1027        	0.375       	2               	;
 W_JIN489           	1029        	0           	5               	;
 W_JTN490           	1029        	0.25000002  	2               	;
 W_JTN492           	1026        	0.3451389   	5               	;
 W_JTN494           	1029        	0.30555558  	5               	;
 W_JTN496           	1027        	0.375       	2               	;
 W_JTN498           	1026        	0.25000002  	2               	;
 W_JTN499           	1027        	0.62500002  	2               	;
 W_JTN501           	1026        	0.25000002  	2               	;
 W_JIN502           	1025        	0           	2               	;
 W_JTN503           	1025        	77.77777778 	5               	;
 W_JIN504           	1025        	0           	2               	;
 W_JTN505           	1025        	0.75        	2               	;
 W_JTN507           	1025        	0.12499998  	2               	;
 W_JIN508           	1025        	0           	2               	;
 W_JTN509           	1025        	0.375       	2               	;
 W_JIN510           	1025        	0           	5               	;
 W_JTN511           	1025        	0.36666666  	5               	;
 W_JIN512           	1031        	0           	5               	;
 W_JTN513           	1030        	0.3298611   	5               	;
 W_JTN514           	1031        	0.32083332  	5               	;
 W_JTN516           	1030        	0.33194442  	5               	;
 W_JTN518           	1028        	0.35416668  	5               	;
 W_JTN520           	1028        	0.75        	2               	;
 W_JTN522           	1028        	0.12499998  	2               	;
 W_JTN524           	1027        	0.375       	2               	;
 W_JTN526           	1027        	0.375       	2               	;
 W_JTN528           	1029        	0.75        	2               	;
 W_JTN530           	1031        	0.12499998  	2               	;
 W_JTN532           	1032        	0.75        	2               	;
 W_JTN534           	1037        	0.25000002  	2               	;
 W_JTN536           	1028        	0.25000002  	2               	;
 W_JTN537           	1027        	0.12499998  	2               	;
 W_JTN539           	1030        	0.375       	2               	;
 W_JTN540           	1028        	0.75        	2               	;
 W_JTN542           	1037        	0.62500002  	2               	;
 W_JTN543           	1037        	0.49999998  	2               	;
 W_JTN545           	1033        	0.49999998  	2               	;
 W_JTN547           	1035        	0.75        	2               	;
 W_JTN549           	1036        	0.12499998  	2               	;
 W_JTN551           	1031        	0.12499998  	2               	;
 W_JTN552           	1032        	0.25000002  	2               	;
 W_JTN554           	1028        	0.375       	2               	;
 W_JTN555           	1028        	0.375       	2               	;
 W_JTN557           	1033        	0.49999998  	2               	;
 W_JTN559           	1031        	0.62500002  	2               	;
 W_JTN561           	1028        	0.12499998  	2               	;
 W_JTN562           	1035        	0.62500002  	2               	;
 W_JTN564           	1033        	0.25000002  	2               	;
 W_JTN565           	1031        	0.12499998  	2               	;
 W_JTN566           	1028        	0.375       	2               	;
 W_JTN568           	1030        	0.62500002  	2               	;
 W_JTN569           	1030        	0.75        	2               	;
 W_JTN571           	1029        	0.62500002  	2               	;
 W_JTN573           	1030        	0.25000002  	2               	;
 W_JTN575           	1031        	0.375       	2               	;
 W_JTN577           	1045        	0.49999998  	2               	;
 W_JTN579           	1044        	0.49999998  	2               	;
 W_JTN581           	1042        	0.49999998  	2               	;
 W_JTN583           	1041        	0.75        	2               	;
 W_JTN585           	1044        	0.62500002  	2               	;
 W_JTN587           	1041        	0.375       	2               	;
 W_JTN589           	1039        	0.12499998  	2               	;
 W_JTN591           	1039        	0.375       	2               	;
 W_JTN593           	1037        	0.25000002  	2               	;
 W_JTN595           	1035        	0.75        	2               	;
 W_JTN596           	1041        	0.62500002  	2               	;
 W_JTN598           	1038        	0.49999998  	2               	;
 W_JTN599           	1037        	0.25000002  	2               	;
 W_JTN601           	1031        	0.12499998  	2               	;
 W_JTN603           	1033        	0.75        	2               	;
 W_JTN605           	1036        	0.375       	2               	;
 W_JTN607           	1038        	0.25000002  	2               	;
 W_JTN609           	1031        	0.75        	2               	;
 W_JTN610           	1030        	0.75        	2               	;
 W_JTN612           	1029        	0.12499998  	2               	;
 W_JTN614           	1030        	0.49999998  	2               	;
 W_JTN616           	1031        	0.375       	2               	;
 W_JTN618           	1033        	0.375       	2               	;
 W_JTN620           	1036        	0.62500002  	2               	;
 W_JTN622           	1031        	0.75        	2               	;
 W_JTN624           	1030        	0.12499998  	2               	;
 W_JTN626           	1036        	0.375       	2               	;
 W_JTN628           	1032        	0.375       	2               	;
 W_JTN630           	1032        	0.49999998  	2               	;
 W_JTN632           	1055        	0.12499998  	2               	;
 W_JTN634           	1044        	0.75        	2               	;
 W_JTN636           	1037        	0.62500002  	2               	;
 W_JTN638           	1036        	0.62500002  	2               	;
 W_JTN640           	1033        	0.12499998  	2               	;
 W_JTN642           	1036        	0.75        	2               	;
 W_JTN644           	1033        	0.375       	2               	;
 W_JTN646           	1035        	0.62500002  	2               	;
 W_JTN648           	1033        	0.12499998  	2               	;
 W_JTN650           	1033        	0.375       	2               	;
 W_JTN652           	1032        	0.12499998  	2               	;
 W_JTN654           	1032        	0.62500002  	2               	;
 W_JTN656           	1030        	0.75        	2               	;
 W_JTN658           	1030        	0.62500002  	2               	;