<NUMBER OF ZONES> 4
<TOTAL OD FLOW> 15000.0
<END OF METADATA>


Origin 	1 
    3 :  5000.0;
    
Origin 	2 
    4 :  10000.0;
    