<NUMBER OF ZONES> 68											
<NUMBER OF NODES> 68											
<FIRST THRU NODE> T_J1											
<NUMBER OF LINKS>210											
<END OF METADATA>											
											
											
~ 	Init node 	Term node 	Capacity 	Length 	Free Flow Time 	B	Power	Speed limit 	Toll 	Type	;
T_J1	T_J2	2700	2.006092	2.91	0.15	4	0	0	1	;
T_J1	T_J60	2700	1.791327	2.65	0.15	4	0	0	1	;
T_J2	T_J31	2400	0.402665	1.31	0.15	4	0	0	1	;
T_J2	T_J1	2700	2.006092	2.91	0.15	4	0	0	1	;
T_J2	T_J3	2700	0.382412	2.46	0.15	4	0	0	1	;
T_J2	T_J57	2400	1.197596	2.9	0.15	4	0	0	1	;
T_J3	T_J2	2700	0.382412	2.46	0.15	4	0	0	1	;
T_J3	T_J30	1500	0.392476	2.94	0.15	4	0	0	1	;
T_J3	T_J4	2700	0.39231900000000003	2.47	0.15	4	0	0	1	;
T_J3	T_J56	1500	1.2279090000000001	4.95	0.15	4	0	0	1	;
T_J4	T_J29	2700	0.392476	2.47	0.15	4	0	0	1	;
T_J4	T_J3	2700	0.39231900000000003	2.47	0.15	4	0	0	1	;
T_J4	T_J5	2700	0.425184	2.51	0.15	4	0	0	1	;
T_J4	T_J55	2400	1.207659	4.42	0.15	4	0	0	1	;
T_J5	T_J4	2700	0.425184	2.51	0.15	4	0	0	1	;
T_J5	T_J6	2700	0.374873	0.95	0.15	4	0	0	1	;
T_J5	T_J28	1500	0.39260500000000004	2.94	0.15	4	0	0	1	;
T_J5	T_J54	1500	1.207659	4.9	0.15	4	0	0	1	;
T_J6	T_J27	2400	0.412603	1.33	0.15	4	0	0	1	;
T_J6	T_J53	2400	1.197596	2.9	0.15	4	0	0	1	;
T_J6	T_J7	2700	0.827725	1.49	0.15	4	0	0	1	;
T_J6	T_J5	2700	0.374873	0.95	0.15	4	0	0	1	;
T_J7	T_J6	2700	0.827725	1.49	0.15	4	0	0	1	;
T_J7	T_J8	2700	0.405063	0.99	0.15	4	0	0	1	;
T_J7	T_J52	2700	1.197596	1.94	0.15	4	0	0	1	;
T_J8	T_J7	2700	0.405063	0.99	0.15	4	0	0	1	;
T_J8	T_J66	2400	0.294139	2.59	0.15	4	0	0	1	;
T_J8	T_J61	2700	0.387444	0.96	0.15	4	0	0	1	;
T_J9	T_J10	2700	0.384936	0.96	0.15	4	0	0	1	;
T_J9	T_J16	2400	1.534689	3.57	0.15	4	0	0	1	;
T_J10	T_J9	2700	0.384936	0.96	0.15	4	0	0	1	;
T_J10	T_J11	2700	0.38996	0.97	0.15	4	0	0	1	;
T_J10	T_J17	1500	2.012721	5.33	0.15	4	0	0	1	;
T_J11	T_J68	2700	0.834979	1.0	0.15	4	0	0	1	;
T_J11	T_J10	2700	0.38996	0.97	0.15	4	0	0	1	;
T_J11	T_J18	2400	2.0127960000000003	6.03	0.15	4	0	0	1	;
T_J11	T_J12	2700	0.427705	2.51	0.15	4	0	0	1	;
T_J12	T_J11	2700	0.427705	2.51	0.15	4	0	0	1	;
T_J12	T_J19	1500	2.002632	5.31	0.15	4	0	0	1	;
T_J12	T_J13	2700	0.392476	0.97	0.15	4	0	0	1	;
T_J13	T_J12	2700	0.392476	0.97	0.15	4	0	0	1	;
T_J13	T_J62	2400	0.412725	1.33	0.15	4	0	0	1	;
T_J13	T_J14	2700	1.640347	2.47	0.15	4	0	0	1	;
T_J14	T_J24	2700	2.0127960000000003	2.92	0.15	4	0	0	1	;
T_J14	T_J13	2700	1.640347	2.47	0.15	4	0	0	1	;
T_J15	T_J16	1500	0.40908999999999995	2.98	0.15	4	0	0	1	;
T_J16	T_J57	2400	1.2781010000000002	3.06	0.15	4	0	0	1	;
T_J16	T_J9	2400	1.534689	3.57	0.15	4	0	0	1	;
T_J16	T_J15	1500	0.40908999999999995	2.98	0.15	4	0	0	1	;
T_J17	T_J18	1500	0.39250799999999997	2.94	0.15	4	0	0	1	;
T_J17	T_J56	1500	0.774888	2.36	0.15	4	0	0	1	;
T_J17	T_J10	1500	2.012721	5.33	0.15	4	0	0	1	;
T_J18	T_J17	1500	0.39250799999999997	2.94	0.15	4	0	0	1	;
T_J18	T_J55	2400	0.8152039999999999	3.63	0.15	4	0	0	1	;
T_J18	T_J11	2400	2.0127960000000003	6.03	0.15	4	0	0	1	;
T_J18	T_J19	1500	0.422666	3.01	0.15	4	0	0	1	;
T_J19	T_J54	1500	0.815142	3.96	0.15	4	0	0	1	;
T_J19	T_J12	1500	2.002632	5.31	0.15	4	0	0	1	;
T_J19	T_J18	1500	0.422666	3.01	0.15	4	0	0	1	;
T_J19	T_J20	1500	0.37741399999999997	1.41	0.15	4	0	0	1	;
T_J20	T_J19	1500	0.37741399999999997	1.41	0.15	4	0	0	1	;
T_J20	T_J62	2400	1.602296	3.7	0.15	4	0	0	1	;
T_J20	T_J21	1500	0.26165	1.13	0.15	4	0	0	1	;
T_J20	T_J53	2400	0.790047	2.08	0.15	4	0	0	1	;
T_J21	T_J22	1500	0.27176	1.15	0.15	4	0	0	1	;
T_J21	T_J63	1500	1.610156	4.36	0.15	4	0	0	1	;
T_J21	T_J20	1500	0.26165	1.13	0.15	4	0	0	1	;
T_J22	T_J21	1500	0.27176	1.15	0.15	4	0	0	1	;
T_J22	T_J23	1500	0.297043	1.21	0.15	4	0	0	1	;
T_J22	T_J64	1500	1.610164	4.36	0.15	4	0	0	1	;
T_J23	T_J22	1500	0.297043	1.21	0.15	4	0	0	1	;
T_J23	T_J65	1500	1.615259	4.38	0.15	4	0	0	1	;
T_J23	T_J52	2700	0.800062	1.46	0.15	4	0	0	1	;
T_J23	T_J24	2700	0.800062	1.46	0.15	4	0	0	1	;
T_J24	T_J23	2700	0.800062	1.46	0.15	4	0	0	1	;
T_J24	T_J14	2700	2.0127960000000003	2.92	0.15	4	0	0	1	;
T_J24	T_J25	2400	0.6641889999999999	1.83	0.15	4	0	0	1	;
T_J25	T_J24	2400	0.6641889999999999	1.83	0.15	4	0	0	1	;
T_J26	T_J33	1500	0.398017	1.46	0.15	4	0	0	1	;
T_J26	T_J27	1500	0.817673	2.46	0.15	4	0	0	1	;
T_J27	T_J28	1500	0.379971	1.41	0.15	4	0	0	1	;
T_J27	T_J34	2400	0.395024	1.29	0.15	4	0	0	1	;
T_J27	T_J26	1500	0.817673	2.46	0.15	4	0	0	1	;
T_J27	T_J6	2400	0.412603	1.33	0.15	4	0	0	1	;
T_J28	T_J35	1500	0.402665	1.47	0.15	4	0	0	1	;
T_J28	T_J27	1500	0.379971	1.41	0.15	4	0	0	1	;
T_J28	T_J5	1500	0.39260500000000004	2.94	0.15	4	0	0	1	;
T_J28	T_J29	1500	0.417665	1.5	0.15	4	0	0	1	;
T_J29	T_J28	1500	0.417665	1.5	0.15	4	0	0	1	;
T_J29	T_J4	2700	0.392476	2.47	0.15	4	0	0	1	;
T_J29	T_J36	2700	0.422666	1.01	0.15	4	0	0	1	;
T_J29	T_J30	1500	0.392484	1.44	0.15	4	0	0	1	;
T_J30	T_J31	1500	0.38242000000000004	1.42	0.15	4	0	0	1	;
T_J30	T_J3	1500	0.392476	2.94	0.15	4	0	0	1	;
T_J30	T_J37	1500	0.422666	1.51	0.15	4	0	0	1	;
T_J30	T_J29	1500	0.392484	1.44	0.15	4	0	0	1	;
T_J31	T_J32	1500	0.8378	2.51	0.15	4	0	0	1	;
T_J31	T_J38	2400	0.417634	1.34	0.15	4	0	0	1	;
T_J31	T_J30	1500	0.38242000000000004	1.42	0.15	4	0	0	1	;
T_J31	T_J2	2400	0.402665	1.31	0.15	4	0	0	1	;
T_J32	T_J31	1500	0.8378	2.51	0.15	4	0	0	1	;
T_J32	T_J45	1500	0.415149	1.5	0.15	4	0	0	1	;
T_J33	T_J34	1500	0.810126	2.44	0.15	4	0	0	1	;
T_J33	T_J39	1500	0.418119	1.5	0.15	4	0	0	1	;
T_J33	T_J26	1500	0.398017	1.46	0.15	4	0	0	1	;
T_J34	T_J40	2400	0.415126	1.33	0.15	4	0	0	1	;
T_J34	T_J35	1500	0.35225799999999996	1.35	0.15	4	0	0	1	;
T_J34	T_J27	2400	0.395024	1.29	0.15	4	0	0	1	;
T_J34	T_J33	1500	0.810126	2.44	0.15	4	0	0	1	;
T_J35	T_J41	1500	0.39260500000000004	1.44	0.15	4	0	0	1	;
T_J35	T_J34	1500	0.35225799999999996	1.35	0.15	4	0	0	1	;
T_J35	T_J28	1500	0.402665	1.47	0.15	4	0	0	1	;
T_J35	T_J36	1500	0.432759	1.54	0.15	4	0	0	1	;
T_J36	T_J35	1500	0.432759	1.54	0.15	4	0	0	1	;
T_J36	T_J37	1500	0.382545	1.42	0.15	4	0	0	1	;
T_J36	T_J29	2700	0.422666	1.01	0.15	4	0	0	1	;
T_J36	T_J42	2700	0.402539	0.98	0.15	4	0	0	1	;
T_J37	T_J38	1500	0.402539	1.47	0.15	4	0	0	1	;
T_J37	T_J43	1500	0.402665	1.47	0.15	4	0	0	1	;
T_J37	T_J36	1500	0.382545	1.42	0.15	4	0	0	1	;
T_J37	T_J30	1500	0.422666	1.51	0.15	4	0	0	1	;
T_J38	T_J45	1500	0.835269	2.5	0.15	4	0	0	1	;
T_J38	T_J44	2400	0.39260500000000004	1.29	0.15	4	0	0	1	;
T_J38	T_J37	1500	0.402539	1.47	0.15	4	0	0	1	;
T_J38	T_J31	2400	0.417634	1.34	0.15	4	0	0	1	;
T_J39	T_J58	1500	0.840361	2.52	0.15	4	0	0	1	;
T_J39	T_J33	1500	0.418119	1.5	0.15	4	0	0	1	;
T_J39	T_J40	1500	0.8152809999999999	2.46	0.15	4	0	0	1	;
T_J40	T_J34	2400	0.415126	1.33	0.15	4	0	0	1	;
T_J40	T_J59	2400	0.8252050000000001	2.15	0.15	4	0	0	1	;
T_J40	T_J41	1500	0.367351	1.38	0.15	4	0	0	1	;
T_J40	T_J39	1500	0.8152809999999999	2.46	0.15	4	0	0	1	;
T_J41	T_J40	1500	0.367351	1.38	0.15	4	0	0	1	;
T_J41	T_J48	1500	1.2176259999999999	3.42	0.15	4	0	0	1	;
T_J41	T_J35	1500	0.39260500000000004	1.44	0.15	4	0	0	1	;
T_J41	T_J42	1500	0.417665	1.5	0.15	4	0	0	1	;
T_J42	T_J43	1500	0.40785000000000005	1.48	0.15	4	0	0	1	;
T_J42	T_J36	2700	0.402539	0.98	0.15	4	0	0	1	;
T_J42	T_J41	1500	0.417665	1.5	0.15	4	0	0	1	;
T_J42	T_J49	2700	1.239173	1.99	0.15	4	0	0	1	;
T_J43	T_J42	1500	0.40785000000000005	1.48	0.15	4	0	0	1	;
T_J43	T_J50	1500	1.2098740000000001	3.4	0.15	4	0	0	1	;
T_J43	T_J44	1500	0.36232	1.37	0.15	4	0	0	1	;
T_J43	T_J37	1500	0.402665	1.47	0.15	4	0	0	1	;
T_J44	T_J38	2400	0.39260500000000004	1.29	0.15	4	0	0	1	;
T_J44	T_J43	1500	0.36232	1.37	0.15	4	0	0	1	;
T_J44	T_J46	1500	0.8152039999999999	2.46	0.15	4	0	0	1	;
T_J44	T_J51	2400	1.2090070000000002	2.92	0.15	4	0	0	1	;
T_J45	T_J32	1500	0.415149	1.5	0.15	4	0	0	1	;
T_J45	T_J46	1500	0.385224	1.42	0.15	4	0	0	1	;
T_J45	T_J38	1500	0.835269	2.5	0.15	4	0	0	1	;
T_J46	T_J45	1500	0.385224	1.42	0.15	4	0	0	1	;
T_J46	T_J44	1500	0.8152039999999999	2.46	0.15	4	0	0	1	;
T_J47	T_J48	2400	0.36475799999999997	1.23	0.15	4	0	0	1	;
T_J47	T_J59	2400	0.36783	1.24	0.15	4	0	0	1	;
T_J48	T_J41	1500	1.2176259999999999	3.42	0.15	4	0	0	1	;
T_J48	T_J49	2400	0.417531	1.34	0.15	4	0	0	1	;
T_J48	T_J47	2400	0.36475799999999997	1.23	0.15	4	0	0	1	;
T_J49	T_J67	2700	0.505726	0.61	0.15	4	0	0	1	;
T_J49	T_J42	2700	1.239173	1.99	0.15	4	0	0	1	;
T_J49	T_J48	2400	0.417531	1.34	0.15	4	0	0	1	;
T_J49	T_J50	2400	0.4059	1.31	0.15	4	0	0	1	;
T_J50	T_J51	2400	0.370495	1.24	0.15	4	0	0	1	;
T_J50	T_J43	1500	1.2098740000000001	3.4	0.15	4	0	0	1	;
T_J50	T_J49	2400	0.4059	1.31	0.15	4	0	0	1	;
T_J51	T_J44	2400	1.2090070000000002	2.92	0.15	4	0	0	1	;
T_J51	T_J50	2400	0.370495	1.24	0.15	4	0	0	1	;
T_J52	T_J23	2700	0.800062	1.46	0.15	4	0	0	1	;
T_J52	T_J7	2700	1.197596	1.94	0.15	4	0	0	1	;
T_J52	T_J53	1500	0.84282	2.52	0.15	4	0	0	1	;
T_J53	T_J20	2400	0.790047	2.08	0.15	4	0	0	1	;
T_J53	T_J6	2400	1.197596	2.9	0.15	4	0	0	1	;
T_J53	T_J54	1500	0.369867	1.39	0.15	4	0	0	1	;
T_J53	T_J52	1500	0.84282	2.52	0.15	4	0	0	1	;
T_J54	T_J55	1500	0.41261000000000003	2.99	0.15	4	0	0	1	;
T_J54	T_J19	1500	0.815142	3.96	0.15	4	0	0	1	;
T_J54	T_J53	1500	0.369867	1.39	0.15	4	0	0	1	;
T_J54	T_J5	1500	1.207659	4.9	0.15	4	0	0	1	;
T_J55	T_J54	1500	0.41261000000000003	2.99	0.15	4	0	0	1	;
T_J55	T_J4	2400	1.207659	4.42	0.15	4	0	0	1	;
T_J55	T_J56	1500	0.40764100000000003	2.98	0.15	4	0	0	1	;
T_J55	T_J18	2400	0.8152039999999999	3.63	0.15	4	0	0	1	;
T_J56	T_J57	1500	0.377382	2.91	0.15	4	0	0	1	;
T_J56	T_J55	1500	0.40764100000000003	2.98	0.15	4	0	0	1	;
T_J56	T_J3	1500	1.2279090000000001	4.95	0.15	4	0	0	1	;
T_J56	T_J17	1500	0.774888	2.36	0.15	4	0	0	1	;
T_J57	T_J2	2400	1.197596	2.9	0.15	4	0	0	1	;
T_J57	T_J16	2400	1.2781010000000002	3.06	0.15	4	0	0	1	;
T_J57	T_J56	1500	0.377382	2.91	0.15	4	0	0	1	;
T_J58	T_J59	1500	0.817661	2.46	0.15	4	0	0	1	;
T_J58	T_J39	1500	0.840361	2.52	0.15	4	0	0	1	;
T_J59	T_J47	2400	0.36783	1.24	0.15	4	0	0	1	;
T_J59	T_J58	1500	0.817661	2.46	0.15	4	0	0	1	;
T_J59	T_J40	2400	0.8252050000000001	2.15	0.15	4	0	0	1	;
T_J60	T_J1	2700	1.791327	2.65	0.15	4	0	0	1	;
T_J61	T_J8	2700	0.387444	0.96	0.15	4	0	0	1	;
T_J62	T_J63	1500	0.26668200000000003	1.14	0.15	4	0	0	1	;
T_J62	T_J20	2400	1.602296	3.7	0.15	4	0	0	1	;
T_J62	T_J13	2400	0.412725	1.33	0.15	4	0	0	1	;
T_J63	T_J21	1500	1.610156	4.36	0.15	4	0	0	1	;
T_J63	T_J62	1500	0.26668200000000003	1.14	0.15	4	0	0	1	;
T_J63	T_J64	1500	0.281822	1.18	0.15	4	0	0	1	;
T_J64	T_J22	1500	1.610164	4.36	0.15	4	0	0	1	;
T_J64	T_J63	1500	0.281822	1.18	0.15	4	0	0	1	;
T_J64	T_J65	1500	0.286853	1.19	0.15	4	0	0	1	;
T_J65	T_J64	1500	0.286853	1.19	0.15	4	0	0	1	;
T_J65	T_J23	1500	1.615259	4.38	0.15	4	0	0	1	;
T_J66	T_J8	2400	0.294139	2.59	0.15	4	0	0	1	;
T_J67	T_J49	2700	0.505726	0.61	0.15	4	0	0	1	;
T_J68	T_J11	2700	0.834979	1.0	0.15	4	0	0	1	;
