<NUMBER OF ZONES> 9											
<NUMBER OF NODES> 9											
<FIRST THRU NODE> T_J1											
<NUMBER OF LINKS>22											
<END OF METADATA>											
											
											
~ 	Init node 	Term node 	Capacity 	Length 	Free Flow Time 	B	Power	Speed limit 	Toll 	Type	;
	T_J1	T_J2	25900.20064	6	6	0.15	4	0	0	1	;
	T_J2	T_J3	23403.47319	4	4	0.15	4	0	0	1	;
	T_J1	T_J4	25900.20064	6	6	0.15	4	0	0	1	;
	T_J3	T_J5	4958.180928	5	5	0.15	4	0	0	1	;
	T_J4	T_J5	23403.47319	4	4	0.15	4	0	0	1	;
	T_J5	T_J6	17110.52372	4	4	0.15	4	0	0	1	;
	T_J4	T_J7	23403.47319	4	4	0.15	4	0	0	1	;
	T_J5	T_J8	17110.52372	4	4	0.15	4	0	0	1	;
	T_J6	T_J9	17782.7941	2	2	0.15	4	0	0	1	;
	T_J7	T_J8	4908.82673	6	6	0.15	4	0	0	1	;
	T_J8	T_J9	17782.7941	2	2	0.15	4	0	0	1	;
	T_J2	T_J1	25900.20064	6	6	0.15	4	0	0	1	;
	T_J3	T_J2	23403.47319	4	4	0.15	4	0	0	1	;
	T_J4	T_J1	25900.20064	6	6	0.15	4	0	0	1	;
	T_J5	T_J3	4958.180928	5	5	0.15	4	0	0	1	;
	T_J5	T_J4	23403.47319	4	4	0.15	4	0	0	1	;
	T_J6	T_J5	17110.52372	4	4	0.15	4	0	0	1	;
	T_J7	T_J4	23403.47319	4	4	0.15	4	0	0	1	;
	T_J8	T_J5	17110.52372	4	4	0.15	4	0	0	1	;
	T_J9	T_J6	17782.7941	2	2	0.15	4	0	0	1	;
	T_J8	T_J7	4908.82673	6	6	0.15	4	0	0	1	;
	T_J9	T_J8	17782.7941	2	2	0.15	4	0	0	1	;
