<NUMBER OF ZONES> 484
<NUMBER OF NODES> 484
<FIRST THRU NODE> T_J0											
<NUMBER OF LINKS>1552											
<END OF METADATA>											
											
					
~ 	Init node	Term node	Capacity	Length	Free Flow Time	B	Power	Speed limit	Toll	Type	id	;
T_J0	T_J1	5000	0.8507626013856707	0.7929588125784235	0.15	4	0	0	1	T_L777	;
T_J1	T_J6	5000	1.486605112559753	1.3855999580945495	0.15	4	0	0	1	T_L4	;
T_J1	T_J0	5000	0.8507626013856707	0.7929588125784235	0.15	4	0	0	1	T_L0	;
T_J1	T_J2	5000	3.909032053855149	3.643438734504042	0.15	4	0	0	1	T_L2	;
T_J2	T_J3	5000	1.540627582488379	1.4359519523375799	0.15	4	0	0	1	T_L1	;
T_J2	T_J1	5000	3.909032053855149	3.643438734504042	0.15	4	0	0	1	T_L779	;
T_J3	T_J2	5000	1.540627582488379	1.4359519523375799	0.15	4	0	0	1	T_L778	;
T_J3	T_J41	5000	1.9613124406600648	1.8280540088480777	0.15	4	0	0	1	T_L820	;
T_J3	T_J6	5000	3.9695080189863066	3.6998057508983107	0.15	4	0	0	1	T_L785	;
T_J3	T_J12	5000	1.939544847813453	1.8077653824460398	0.15	4	0	0	1	T_L15	;
T_J4	T_J5	6600	3.205219669714318	1.8384282012831281	0.15	4	0	0	1	T_L3	;
T_J5	T_J20	5000	0.6689038769969889	0.623456206430244	0.15	4	0	0	1	T_L809	;
T_J5	T_J4	6600	3.205219669714318	1.8384282012831281	0.15	4	0	0	1	T_L780	;
T_J5	T_J22	6600	1.038957456183795	0.5959181847751209	0.15	4	0	0	1	T_L33	;
T_J6	T_J14	5000	3.98042051988277	3.709976818290115	0.15	4	0	0	1	T_L789	;
T_J6	T_J15	5000	1.984055501959724	1.8492518269623233	0.15	4	0	0	1	T_L13	;
T_J6	T_J1	5000	1.486605112559753	1.3855999580945495	0.15	4	0	0	1	T_L781	;
T_J6	T_J3	5000	3.9695080189863066	3.6998057508983107	0.15	4	0	0	1	T_L8	;
T_J7	T_J8	5000	1.0110046741759333	0.9423134780960609	0.15	4	0	0	1	T_L5	;
T_J8	T_J7	5000	1.0110046741759333	0.9423134780960609	0.15	4	0	0	1	T_L782	;
T_J8	T_J13	5000	5.88738794360089	5.4873782008548435	0.15	4	0	0	1	T_L787	;
T_J8	T_J24	5000	2.9579514710200483	2.7569778952487973	0.15	4	0	0	1	T_L799	;
T_J9	T_J34	6600	2.522182257550374	1.446656226052	0.15	4	0	0	1	T_L35	;
T_J9	T_J11	5000	1.700358641682302	1.5848303243111606	0.15	4	0	0	1	T_L784	;
T_J9	T_J10	5000	2.418585374727458	2.254258219319663	0.15	4	0	0	1	T_L6	;
T_J10	T_J39	5000	1.9846353440768392	1.8497922725765543	0.15	4	0	0	1	T_L39	;
T_J10	T_J12	5000	1.771842761651069	1.6514575629748296	0.15	4	0	0	1	T_L9	;
T_J10	T_J9	5000	2.418585374727458	2.254258219319663	0.15	4	0	0	1	T_L783	;
T_J11	T_J18	5000	2.059579951451415	1.9196448810199753	0.15	4	0	0	1	T_L17	;
T_J11	T_J17	5000	1.9601234766688906	1.826945827231838	0.15	4	0	0	1	T_L16	;
T_J11	T_J9	5000	1.700358641682302	1.5848303243111606	0.15	4	0	0	1	T_L7	;
T_J12	T_J16	5000	1.968853985618501	1.8350831548466306	0.15	4	0	0	1	T_L791	;
T_J12	T_J3	5000	1.939544847813453	1.8077653824460398	0.15	4	0	0	1	T_L792	;
T_J12	T_J10	5000	1.771842761651069	1.6514575629748296	0.15	4	0	0	1	T_L786	;
T_J13	T_J14	5000	1.9469193052573206	1.8146387934405699	0.15	4	0	0	1	T_L788	;
T_J13	T_J8	5000	5.88738794360089	5.4873782008548435	0.15	4	0	0	1	T_L10	;
T_J14	T_J6	5000	3.98042051988277	3.709976818290115	0.15	4	0	0	1	T_L12	;
T_J14	T_J19	5000	1.9913006544995075	1.8560047184805204	0.15	4	0	0	1	T_L18	;
T_J14	T_J13	5000	1.9469193052573206	1.8146387934405699	0.15	4	0	0	1	T_L11	;
T_J15	T_J6	5000	1.984055501959724	1.8492518269623233	0.15	4	0	0	1	T_L790	;
T_J15	T_J19	5000	4.062275694021724	3.786270465404959	0.15	4	0	0	1	T_L41	;
T_J15	T_J48	5000	2.234944711492757	2.083094745487449	0.15	4	0	0	1	T_L832	;
T_J15	T_J41	5000	3.903688288212609	3.6384580430024362	0.15	4	0	0	1	T_L821	;
T_J16	T_J12	5000	1.968853985618501	1.8350831548466306	0.15	4	0	0	1	T_L14	;
T_J16	T_J41	5000	1.9626455191888659	1.8292965133558574	0.15	4	0	0	1	T_L830	;
T_J16	T_J39	5000	1.939971164946686	1.8081627341011308	0.15	4	0	0	1	T_L823	;
T_J16	T_J46	5000	1.9817092779551737	1.8470650136284261	0.15	4	0	0	1	T_L51	;
T_J17	T_J11	5000	1.9601234766688906	1.826945827231838	0.15	4	0	0	1	T_L793	;
T_J17	T_J31	5000	1.9344382281548882	1.8030057244002464	0.15	4	0	0	1	T_L806	;
T_J17	T_J27	5000	1.9999980577910212	1.8641111897514968	0.15	4	0	0	1	T_L27	;
T_J18	T_J31	5000	1.6195319847192229	1.5094953133154525	0.15	4	0	0	1	T_L835	;
T_J18	T_J34	5000	0.6900306223153571	0.6431475267280736	0.15	4	0	0	1	T_L42	;
T_J18	T_J11	5000	2.059579951451415	1.9196448810199753	0.15	4	0	0	1	T_L794	;
T_J19	T_J15	5000	4.062275694021724	3.786270465404959	0.15	4	0	0	1	T_L818	;
T_J19	T_J51	5000	0.9066041633811389	0.8450063034064526	0.15	4	0	0	1	T_L836	;
T_J19	T_J44	5000	4.080423056550525	3.803184832607785	0.15	4	0	0	1	T_L825	;
T_J19	T_J14	5000	1.9913006544995075	1.8560047184805204	0.15	4	0	0	1	T_L795	;
T_J20	T_J5	5000	0.6689038769969889	0.623456206430244	0.15	4	0	0	1	T_L32	;
T_J20	T_J22	5000	0.8787047775462932	0.8190024994930766	0.15	4	0	0	1	T_L20	;
T_J20	T_J21	5000	3.1595420136473766	2.944871670843126	0.15	4	0	0	1	T_L796	;
T_J21	T_J20	5000	3.1595420136473766	2.944871670843126	0.15	4	0	0	1	T_L19	;
T_J21	T_J33	5000	1.916287105402929	1.786087852456985	0.15	4	0	0	1	T_L811	;
T_J21	T_J23	5000	4.804131558552474	4.477722046003964	0.15	4	0	0	1	T_L21	;
T_J22	T_J5	6600	1.038957456183795	0.5959181847751209	0.15	4	0	0	1	T_L810	;
T_J22	T_J45	6600	1.639293492826741	0.9402548648596107	0.15	4	0	0	1	T_L826	;
T_J22	T_J35	5000	1.0922673924914426	1.0180549229097	0.15	4	0	0	1	T_L813	;
T_J22	T_J20	5000	0.8787047775462932	0.8190024994930766	0.15	4	0	0	1	T_L797	;
T_J23	T_J26	6600	2.0008857995823695	1.2432924101722964	0.15	4	0	0	1	T_L801	;
T_J23	T_J25	5000	1.9444592301704644	1.8123458644653774	0.15	4	0	0	1	T_L800	;
T_J23	T_J21	5000	4.804131558552474	4.477722046003964	0.15	4	0	0	1	T_L798	;
T_J24	T_J53	5000	0.6719805441467094	0.6263238340454775	0.15	4	0	0	1	T_L863	;
T_J24	T_J65	5000	4.038459779523018	3.7640726874929955	0.15	4	0	0	1	T_L866	;
T_J24	T_J8	5000	2.9579514710200483	2.7569778952487973	0.15	4	0	0	1	T_L22	;
T_J25	T_J23	5000	1.9444592301704644	1.8123458644653774	0.15	4	0	0	1	T_L23	;
T_J25	T_J30	5000	0.5648813413015912	0.5265013258888664	0.15	4	0	0	1	T_L28	;
T_J25	T_J32	5000	1.9768079129170089	1.8424966644857321	0.15	4	0	0	1	T_L31	;
T_J26	T_J23	6600	2.0008857995823695	1.2432924101722964	0.15	4	0	0	1	T_L24	;
T_J26	T_J54	5000	3.501445998918093	3.2635455026906017	0.15	4	0	0	1	T_L64	;
T_J26	T_J58	6600	1.9590046408454367	1.2172686726867699	0.15	4	0	0	1	T_L71	;
T_J26	T_J32	5000	1.9461413347082985	1.8139136809335454	0.15	4	0	0	1	T_L72	;
T_J27	T_J29	5000	1.9296255324115374	1.7985200200501341	0.15	4	0	0	1	T_L26	;
T_J27	T_J17	5000	1.9999980577910212	1.8641111897514968	0.15	4	0	0	1	T_L804	;
T_J27	T_J28	5000	5.896993534528262	5.49633115431504	0.15	4	0	0	1	T_L802	;
T_J28	T_J27	5000	5.896993534528262	5.49633115431504	0.15	4	0	0	1	T_L25	;
T_J28	T_J30	5000	1.4146318902147998	1.3185168483819905	0.15	4	0	0	1	T_L30	;
T_J28	T_J42	5000	1.979455042026784	1.844963938378837	0.15	4	0	0	1	T_L66	;
T_J29	T_J50	5000	1.9644712657336885	1.8309982122903117	0.15	4	0	0	1	T_L834	;
T_J29	T_J88	5000	2.2303983831385636	2.0788573105937886	0.15	4	0	0	1	T_L899	;
T_J29	T_J27	5000	1.9296255324115374	1.7985200200501341	0.15	4	0	0	1	T_L803	;
T_J29	T_J31	5000	1.9782295059728499	1.8438216695337835	0.15	4	0	0	1	T_L842	;
T_J30	T_J28	5000	1.4146318902147998	1.3185168483819905	0.15	4	0	0	1	T_L807	;
T_J30	T_J25	5000	0.5648813413015912	0.5265013258888664	0.15	4	0	0	1	T_L805	;
T_J30	T_J36	6600	1.9623727628103738	1.1255644855386875	0.15	4	0	0	1	T_L814	;
T_J31	T_J17	5000	1.9344382281548882	1.8030057244002464	0.15	4	0	0	1	T_L29	;
T_J31	T_J29	5000	1.9782295059728499	1.8438216695337835	0.15	4	0	0	1	T_L65	;
T_J31	T_J18	5000	1.6195319847192229	1.5094953133154525	0.15	4	0	0	1	T_L58	;
T_J32	T_J59	5000	1.9553727541812094	1.8225178854574986	0.15	4	0	0	1	T_L850	;
T_J32	T_J25	5000	1.9768079129170089	1.8424966644857321	0.15	4	0	0	1	T_L808	;
T_J32	T_J36	5000	0.5781506866643552	0.5388691054849756	0.15	4	0	0	1	T_L837	;
T_J32	T_J26	5000	1.9461413347082985	1.8139136809335454	0.15	4	0	0	1	T_L849	;
T_J33	T_J21	5000	1.916287105402929	1.786087852456985	0.15	4	0	0	1	T_L34	;
T_J33	T_J45	5000	2.0522781278944584	1.9128391689118613	0.15	4	0	0	1	T_L62	;
T_J33	T_J54	5000	1.2913660645332956	1.2036261343276777	0.15	4	0	0	1	T_L67	;
T_J33	T_J55	5000	1.9529547288620768	1.8202641492416365	0.15	4	0	0	1	T_L68	;
T_J34	T_J56	6600	3.2522500127369534	1.8654035470748063	0.15	4	0	0	1	T_L846	;
T_J34	T_J18	5000	0.6900306223153571	0.6431475267280736	0.15	4	0	0	1	T_L819	;
T_J34	T_J9	6600	2.522182257550374	1.446656226052	0.15	4	0	0	1	T_L812	;
T_J34	T_J40	5000	2.046573605456395	1.9075222316940688	0.15	4	0	0	1	T_L829	;
T_J35	T_J45	5000	1.0623316880238345	0.9901531549785871	0.15	4	0	0	1	T_L50	;
T_J35	T_J49	5000	2.176751899860144	2.0288557571519963	0.15	4	0	0	1	T_L56	;
T_J35	T_J22	5000	1.0922673924914426	1.0180549229097	0.15	4	0	0	1	T_L36	;
T_J36	T_J52	6600	1.9896294653742153	1.141198200488346	0.15	4	0	0	1	T_L61	;
T_J36	T_J30	6600	1.9623727628103738	1.1255644855386875	0.15	4	0	0	1	T_L37	;
T_J36	T_J42	5000	1.3925738237939935	1.2979574841970465	0.15	4	0	0	1	T_L45	;
T_J36	T_J32	5000	0.5781506866643552	0.5388691054849756	0.15	4	0	0	1	T_L60	;
T_J37	T_J69	6600	2.2070036687186976	1.2658782245865285	0.15	4	0	0	1	T_L90	;
T_J37	T_J38	6600	2.06935794449642	1.186928321842786	0.15	4	0	0	1	T_L38	;
T_J38	T_J64	6600	1.5106722419571725	0.8664811584527726	0.15	4	0	0	1	T_L856	;
T_J38	T_J53	6600	3.8648713899329667	2.2167867696314194	0.15	4	0	0	1	T_L840	;
T_J38	T_J73	6600	4.363337105053569	2.7112511403042414	0.15	4	0	0	1	T_L870	;
T_J38	T_J68	5000	1.214178586086353	1.1316830433225948	0.15	4	0	0	1	T_L85	;
T_J38	T_J37	6600	2.06935794449642	1.186928321842786	0.15	4	0	0	1	T_L815	;
T_J39	T_J10	5000	1.9846353440768392	1.8497922725765543	0.15	4	0	0	1	T_L816	;
T_J39	T_J40	5000	1.5278528922202046	1.4240452192376412	0.15	4	0	0	1	T_L817	;
T_J39	T_J43	5000	1.9837786840792841	1.848993817057543	0.15	4	0	0	1	T_L824	;
T_J39	T_J16	5000	1.939971164946686	1.8081627341011308	0.15	4	0	0	1	T_L46	;
T_J40	T_J34	5000	2.046573605456395	1.9075222316940688	0.15	4	0	0	1	T_L52	;
T_J40	T_J39	5000	1.5278528922202046	1.4240452192376412	0.15	4	0	0	1	T_L40	;
T_J40	T_J74	5000	2.0874244859299806	1.9455975603701972	0.15	4	0	0	1	T_L103	;
T_J41	T_J16	5000	1.9626455191888659	1.8292965133558574	0.15	4	0	0	1	T_L53	;
T_J41	T_J47	5000	1.9871124560885287	1.8521010809282779	0.15	4	0	0	1	T_L54	;
T_J41	T_J15	5000	3.903688288212609	3.6384580430024362	0.15	4	0	0	1	T_L44	;
T_J41	T_J3	5000	1.9613124406600648	1.8280540088480777	0.15	4	0	0	1	T_L43	;
T_J42	T_J61	5000	1.9653234135512918	1.8317924622026698	0.15	4	0	0	1	T_L852	;
T_J42	T_J62	5000	2.9196810061588154	2.7213076597168637	0.15	4	0	0	1	T_L855	;
T_J42	T_J36	5000	1.3925738237939935	1.2979574841970465	0.15	4	0	0	1	T_L822	;
T_J42	T_J28	5000	1.979455042026784	1.844963938378837	0.15	4	0	0	1	T_L843	;
T_J43	T_J97	5000	2.047095546107346	1.9080087098704017	0.15	4	0	0	1	T_L132	;
T_J43	T_J76	5000	1.1133825973155835	1.0377354868148723	0.15	4	0	0	1	T_L874	;
T_J43	T_J39	5000	1.9837786840792841	1.848993817057543	0.15	4	0	0	1	T_L47	;
T_J43	T_J74	5000	2.0308785755600027	1.8928935770614417	0.15	4	0	0	1	T_L94	;
T_J44	T_J65	5000	0.6475223620816083	0.6035274264735165	0.15	4	0	0	1	T_L857	;
T_J44	T_J19	5000	4.080423056550525	3.803184832607785	0.15	4	0	0	1	T_L48	;
T_J45	T_J35	5000	1.0623316880238345	0.9901531549785871	0.15	4	0	0	1	T_L827	;
T_J45	T_J22	6600	1.639293492826741	0.9402548648596107	0.15	4	0	0	1	T_L49	;
T_J45	T_J33	5000	2.0522781278944584	1.9128391689118613	0.15	4	0	0	1	T_L839	;
T_J45	T_J75	6600	2.5604515054232766	1.4686064421935694	0.15	4	0	0	1	T_L96	;
T_J46	T_J16	5000	1.9817092779551737	1.8470650136284261	0.15	4	0	0	1	T_L828	;
T_J46	T_J77	5000	0.9536048090244365	0.8888135606824846	0.15	4	0	0	1	T_L875	;
T_J46	T_J78	5000	2.149188352183183	2.003164973376625	0.15	4	0	0	1	T_L876	;
T_J46	T_J47	5000	1.8310526556302877	1.7066445295224713	0.15	4	0	0	1	T_L879	;
T_J47	T_J46	5000	1.8310526556302877	1.7066445295224713	0.15	4	0	0	1	T_L102	;
T_J47	T_J106	5000	1.9293074088863578	1.7982235109506874	0.15	4	0	0	1	T_L151	;
T_J47	T_J41	5000	1.9871124560885287	1.8521010809282779	0.15	4	0	0	1	T_L831	;
T_J48	T_J51	6600	4.307487687677392	2.470659629519805	0.15	4	0	0	1	T_L121	;
T_J48	T_J15	5000	2.234944711492757	2.083094745487449	0.15	4	0	0	1	T_L55	;
T_J48	T_J89	5000	1.5211212129167937	1.4177709137869816	0.15	4	0	0	1	T_L900	;
T_J48	T_J90	6600	2.5353287743517376	1.4541967161671203	0.15	4	0	0	1	T_L124	;
T_J49	T_J35	5000	2.176751899860144	2.0288557571519963	0.15	4	0	0	1	T_L833	;
T_J49	T_J87	5000	2.6494379009095193	2.4694258168890735	0.15	4	0	0	1	T_L895	;
T_J49	T_J75	5000	2.8786620319279863	2.6830756581616875	0.15	4	0	0	1	T_L117	;
T_J50	T_J62	5000	1.0330734047251717	0.9628827818512271	0.15	4	0	0	1	T_L853	;
T_J50	T_J29	5000	1.9644712657336885	1.8309982122903117	0.15	4	0	0	1	T_L57	;
T_J50	T_J57	5000	2.1147647808776266	1.9710802599880675	0.15	4	0	0	1	T_L847	;
T_J51	T_J48	6600	4.307487687677392	2.470659629519805	0.15	4	0	0	1	T_L898	;
T_J51	T_J67	5000	2.7362138141913537	2.550305870906844	0.15	4	0	0	1	T_L861	;
T_J51	T_J19	5000	0.9066041633811389	0.8450063034064526	0.15	4	0	0	1	T_L59	;
T_J51	T_J65	6600	4.157813036430184	2.3848102562396862	0.15	4	0	0	1	T_L858	;
T_J52	T_J61	5000	1.3887822170339772	1.2944234924709292	0.15	4	0	0	1	T_L889	;
T_J52	T_J59	5000	0.5427926079959862	0.5059133784346109	0.15	4	0	0	1	T_L111	;
T_J52	T_J36	6600	1.9896294653742153	1.141198200488346	0.15	4	0	0	1	T_L838	;
T_J52	T_J86	6600	1.7095717356601985	0.9805645836543814	0.15	4	0	0	1	T_L133	;
T_J53	T_J65	6600	4.09471146495302	2.3486168840209136	0.15	4	0	0	1	T_L82	;
T_J53	T_J24	5000	0.6719805441467094	0.6263238340454775	0.15	4	0	0	1	T_L86	;
T_J53	T_J91	5000	0.7290815562248016	0.6795452035094418	0.15	4	0	0	1	T_L125	;
T_J53	T_J38	6600	3.8648713899329667	2.2167867696314194	0.15	4	0	0	1	T_L63	;
T_J54	T_J60	5000	1.8505156203659943	1.7247851123136575	0.15	4	0	0	1	T_L74	;
T_J54	T_J26	5000	3.501445998918093	3.2635455026906017	0.15	4	0	0	1	T_L841	;
T_J54	T_J33	5000	1.2913660645332956	1.2036261343276777	0.15	4	0	0	1	T_L844	;
T_J55	T_J75	5000	0.2484733004419826	0.23159115475340275	0.15	4	0	0	1	T_L115	;
T_J55	T_J33	5000	1.9529547288620768	1.8202641492416365	0.15	4	0	0	1	T_L845	;
T_J55	T_J60	5000	1.552017030930902	1.4465675617898484	0.15	4	0	0	1	T_L109	;
T_J55	T_J84	5000	0.6912025526385664	0.644239832003368	0.15	4	0	0	1	T_L110	;
T_J56	T_J34	6600	3.2522500127369534	1.8654035470748063	0.15	4	0	0	1	T_L69	;
T_J56	T_J88	5000	2.2094419678061077	2.0593247474664738	0.15	4	0	0	1	T_L119	;
T_J56	T_J93	5000	2.3666082918826787	2.2058126414031483	0.15	4	0	0	1	T_L128	;
T_J56	T_J94	6600	2.27916613612501	1.3072686841570462	0.15	4	0	0	1	T_L129	;
T_J57	T_J114	5000	2.158364237996761	2.011717417392428	0.15	4	0	0	1	T_L166	;
T_J57	T_J50	5000	2.1147647808776266	1.9710802599880675	0.15	4	0	0	1	T_L70	;
T_J57	T_J88	5000	1.9879487424384958	1.852880547056626	0.15	4	0	0	1	T_L897	;
T_J58	T_J125	6600	2.5759344696541313	1.6006109773434571	0.15	4	0	0	1	T_L961	;
T_J58	T_J26	6600	1.9590046408454367	1.2172686726867699	0.15	4	0	0	1	T_L848	;
T_J58	T_J60	5000	3.4528281452447	3.2182309161582667	0.15	4	0	0	1	T_L95	;
T_J58	T_J59	5000	1.954700930864364	1.8218917081681811	0.15	4	0	0	1	T_L885	;
T_J59	T_J58	5000	1.954700930864364	1.8218917081681811	0.15	4	0	0	1	T_L108	;
T_J59	T_J32	5000	1.9553727541812094	1.8225178854574986	0.15	4	0	0	1	T_L73	;
T_J59	T_J86	5000	1.592714262725166	1.4844996812156988	0.15	4	0	0	1	T_L114	;
T_J59	T_J52	5000	0.5427926079959862	0.5059133784346109	0.15	4	0	0	1	T_L888	;
T_J60	T_J126	5000	2.7291285394188805	2.5437019945008736	0.15	4	0	0	1	T_L966	;
T_J60	T_J58	5000	3.4528281452447	3.2182309161582667	0.15	4	0	0	1	T_L872	;
T_J60	T_J54	5000	1.8505156203659943	1.7247851123136575	0.15	4	0	0	1	T_L851	;
T_J60	T_J55	5000	1.552017030930902	1.4465675617898484	0.15	4	0	0	1	T_L886	;
T_J61	T_J85	5000	2.442289023311089	2.2763513590557523	0.15	4	0	0	1	T_L113	;
T_J61	T_J42	5000	1.9653234135512918	1.8317924622026698	0.15	4	0	0	1	T_L75	;
T_J61	T_J52	5000	1.3887822170339772	1.2944234924709292	0.15	4	0	0	1	T_L112	;
T_J62	T_J63	5000	4.222180094295388	3.9353104010586293	0.15	4	0	0	1	T_L77	;
T_J62	T_J50	5000	1.0330734047251717	0.9628827818512271	0.15	4	0	0	1	T_L76	;
T_J62	T_J42	5000	2.9196810061588154	2.7213076597168637	0.15	4	0	0	1	T_L78	;
T_J63	T_J62	5000	4.222180094295388	3.9353104010586293	0.15	4	0	0	1	T_L854	;
T_J63	T_J85	5000	2.9575225529482974	2.7565781193720547	0.15	4	0	0	1	T_L173	;
T_J63	T_J115	5000	1.307093886160891	1.2182853527065183	0.15	4	0	0	1	T_L167	;
T_J64	T_J70	5000	0.9530645163356892	0.8883099773700353	0.15	4	0	0	1	T_L865	;
T_J64	T_J68	5000	0.9880954119182309	0.9209607512985646	0.15	4	0	0	1	T_L775	;
T_J64	T_J69	6600	0.4230173883920442	0.24263145013158732	0.15	4	0	0	1	T_L87	;
T_J64	T_J38	6600	1.5106722419571725	0.8664811584527726	0.15	4	0	0	1	T_L79	;
T_J65	T_J51	6600	4.157813036430184	2.3848102562396862	0.15	4	0	0	1	T_L81	;
T_J65	T_J24	5000	4.038459779523018	3.7640726874929955	0.15	4	0	0	1	T_L89	;
T_J65	T_J44	5000	0.6475223620816083	0.6035274264735165	0.15	4	0	0	1	T_L80	;
T_J65	T_J53	6600	4.09471146495302	2.3486168840209136	0.15	4	0	0	1	T_L859	;
T_J65	T_J66	5000	0.9652245003747667	0.8996437695335537	0.15	4	0	0	1	T_L860	;
T_J66	T_J72	5000	1.4834379713485002	1.3826480035421833	0.15	4	0	0	1	T_L869	;
T_J66	T_J100	5000	2.4747545849776387	2.3066110968332105	0.15	4	0	0	1	T_L139	;
T_J66	T_J65	5000	0.9652245003747667	0.8996437695335537	0.15	4	0	0	1	T_L83	;
T_J67	T_J51	5000	2.7362138141913537	2.550305870906844	0.15	4	0	0	1	T_L84	;
T_J67	T_J102	5000	2.078720544357395	1.9374849950518482	0.15	4	0	0	1	T_L144	;
T_J67	T_J100	5000	3.0176125572096772	2.8125853984289013	0.15	4	0	0	1	T_L142	;
T_J67	T_J89	5000	4.010807397919436	3.7382991054788968	0.15	4	0	0	1	T_L143	;
T_J68	T_J38	5000	1.214178586086353	1.1316830433225948	0.15	4	0	0	1	T_L862	;
T_J68	T_J64	5000	0.9880954119182309	0.9209607512985646	0.15	4	0	0	1	T_L1552	;
T_J69	T_J37	6600	2.2070036687186976	1.2658782245865285	0.15	4	0	0	1	T_L867	;
T_J69	T_J71	6600	1.0184759371878	0.5841705337535266	0.15	4	0	0	1	T_L91	;
T_J69	T_J64	6600	0.4230173883920442	0.24263145013158732	0.15	4	0	0	1	T_L864	;
T_J70	T_J82	5000	1.2858436183408282	1.1984789024580882	0.15	4	0	0	1	T_L106	;
T_J70	T_J64	5000	0.9530645163356892	0.8883099773700353	0.15	4	0	0	1	T_L88	;
T_J70	T_J71	5000	0.914052037026889	0.8519481424491526	0.15	4	0	0	1	T_L100	;
T_J71	T_J79	6600	1.347597262052681	0.772945715371326	0.15	4	0	0	1	T_L878	;
T_J71	T_J69	6600	1.0184759371878	0.5841705337535266	0.15	4	0	0	1	T_L868	;
T_J71	T_J70	5000	0.914052037026889	0.8519481424491526	0.15	4	0	0	1	T_L877	;
T_J72	T_J91	5000	4.041192513677109	3.766619750124089	0.15	4	0	0	1	T_L126	;
T_J72	T_J100	5000	1.0189452506683323	0.9497145440295486	0.15	4	0	0	1	T_L140	;
T_J72	T_J105	5000	0.7960294962286747	0.7419444661516618	0.15	4	0	0	1	T_L148	;
T_J72	T_J66	5000	1.4834379713485002	1.3826480035421833	0.15	4	0	0	1	T_L92	;
T_J73	T_J98	6600	3.210671591897521	1.9950182177289542	0.15	4	0	0	1	T_L915	;
T_J73	T_J92	6600	0.5300662892759724	0.32936782023370026	0.15	4	0	0	1	T_L914	;
T_J73	T_J38	6600	4.363337105053569	2.7112511403042414	0.15	4	0	0	1	T_L93	;
T_J74	T_J81	5000	2.1161165598893703	1.9723401944025267	0.15	4	0	0	1	T_L105	;
T_J74	T_J80	5000	1.8574225393215442	1.7312227510211509	0.15	4	0	0	1	T_L104	;
T_J74	T_J43	5000	2.0308785755600027	1.8928935770614417	0.15	4	0	0	1	T_L871	;
T_J74	T_J40	5000	2.0874244859299806	1.9455975603701972	0.15	4	0	0	1	T_L880	;
T_J75	T_J55	5000	0.2484733004419826	0.23159115475340275	0.15	4	0	0	1	T_L892	;
T_J75	T_J84	6600	0.6788329182942195	0.38936039009852075	0.15	4	0	0	1	T_L893	;
T_J75	T_J49	5000	2.8786620319279863	2.6830756581616875	0.15	4	0	0	1	T_L894	;
T_J75	T_J45	6600	2.5604515054232766	1.4686064421935694	0.15	4	0	0	1	T_L873	;
T_J76	T_J99	5000	2.020784482118912	1.8834853116580654	0.15	4	0	0	1	T_L136	;
T_J76	T_J43	5000	1.1133825973155835	1.0377354868148723	0.15	4	0	0	1	T_L97	;
T_J77	T_J46	5000	0.9536048090244365	0.8888135606824846	0.15	4	0	0	1	T_L98	;
T_J78	T_J106	5000	1.5704675576897282	1.4637644951838362	0.15	4	0	0	1	T_L929	;
T_J78	T_J46	5000	2.149188352183183	2.003164973376625	0.15	4	0	0	1	T_L99	;
T_J78	T_J134	5000	1.41001998668415	1.3142182937188756	0.15	4	0	0	1	T_L977	;
T_J78	T_J99	5000	1.4807599662193802	1.380151951454554	0.15	4	0	0	1	T_L932	;
T_J79	T_J171	6600	5.103095258678945	2.926998834443626	0.15	4	0	0	1	T_L1044	;
T_J79	T_J82	6600	1.189186478841642	0.7389259915443099	0.15	4	0	0	1	T_L135	;
T_J79	T_J71	6600	1.347597262052681	0.772945715371326	0.15	4	0	0	1	T_L101	;
T_J80	T_J83	5000	2.071649453531324	1.9308943388853186	0.15	4	0	0	1	T_L884	;
T_J80	T_J74	5000	1.8574225393215442	1.7312227510211509	0.15	4	0	0	1	T_L881	;
T_J81	T_J83	5000	1.7123833618548203	1.5960380429086374	0.15	4	0	0	1	T_L936	;
T_J81	T_J109	5000	2.2139724288713563	2.0635473931503356	0.15	4	0	0	1	T_L937	;
T_J81	T_J138	5000	1.5304493694793149	1.4264652827440971	0.15	4	0	0	1	T_L989	;
T_J81	T_J74	5000	2.1161165598893703	1.9723401944025267	0.15	4	0	0	1	T_L882	;
T_J82	T_J79	6600	1.189186478841642	0.7389259915443099	0.15	4	0	0	1	T_L912	;
T_J82	T_J98	6600	0.7545636288498735	0.46886395662207475	0.15	4	0	0	1	T_L134	;
T_J82	T_J70	5000	1.2858436183408282	1.1984789024580882	0.15	4	0	0	1	T_L883	;
T_J83	T_J80	5000	2.071649453531324	1.9308943388853186	0.15	4	0	0	1	T_L107	;
T_J83	T_J93	5000	0.6696388689832341	0.6241412604884717	0.15	4	0	0	1	T_L158	;
T_J83	T_J81	5000	1.7123833618548203	1.5960380429086374	0.15	4	0	0	1	T_L159	;
T_J84	T_J55	5000	0.6912025526385664	0.644239832003368	0.15	4	0	0	1	T_L887	;
T_J84	T_J75	6600	0.6788329182942195	0.38936039009852075	0.15	4	0	0	1	T_L116	;
T_J84	T_J95	6600	2.311889171405902	1.3260377412236832	0.15	4	0	0	1	T_L907	;
T_J84	T_J96	5000	2.082300072274856	1.9408213173142495	0.15	4	0	0	1	T_L908	;
T_J85	T_J63	5000	2.9575225529482974	2.7565781193720547	0.15	4	0	0	1	T_L950	;
T_J85	T_J124	5000	0.9179763394785824	0.8556058140572194	0.15	4	0	0	1	T_L960	;
T_J85	T_J61	5000	2.442289023311089	2.2763513590557523	0.15	4	0	0	1	T_L890	;
T_J85	T_J122	5000	1.9003566095014297	1.7712397302037692	0.15	4	0	0	1	T_L958	;
T_J86	T_J122	5000	0.8999478806492682	0.8388022718203747	0.15	4	0	0	1	T_L957	;
T_J86	T_J59	5000	1.592714262725166	1.4844996812156988	0.15	4	0	0	1	T_L891	;
T_J86	T_J52	6600	1.7095717356601985	0.9805645836543814	0.15	4	0	0	1	T_L910	;
T_J86	T_J121	6600	1.1807983103235442	0.677274301739124	0.15	4	0	0	1	T_L955	;
T_J87	T_J49	5000	2.6494379009095193	2.4694258168890735	0.15	4	0	0	1	T_L118	;
T_J87	T_J96	5000	3.009202287442993	2.8047465518261103	0.15	4	0	0	1	T_L196	;
T_J88	T_J56	5000	2.2094419678061077	2.0593247474664738	0.15	4	0	0	1	T_L896	;
T_J88	T_J111	5000	2.181070060924294	2.032880527239884	0.15	4	0	0	1	T_L163	;
T_J88	T_J57	5000	1.9879487424384958	1.852880547056626	0.15	4	0	0	1	T_L120	;
T_J88	T_J29	5000	2.2303983831385636	2.0788573105937886	0.15	4	0	0	1	T_L122	;
T_J89	T_J48	5000	1.5211212129167937	1.4177709137869816	0.15	4	0	0	1	T_L123	;
T_J89	T_J90	5000	1.4815095773276035	1.3808506313604454	0.15	4	0	0	1	T_L145	;
T_J89	T_J67	5000	4.010807397919436	3.7382991054788968	0.15	4	0	0	1	T_L920	;
T_J89	T_J104	5000	3.676237716448129	3.426461259160635	0.15	4	0	0	1	T_L147	;
T_J90	T_J112	6600	0.6400261378322704	0.3671018596532083	0.15	4	0	0	1	T_L952	;
T_J90	T_J89	5000	1.4815095773276035	1.3808506313604454	0.15	4	0	0	1	T_L922	;
T_J90	T_J106	5000	2.337084518880593	2.1782948168720293	0.15	4	0	0	1	T_L931	;
T_J90	T_J48	6600	2.5353287743517376	1.4541967161671203	0.15	4	0	0	1	T_L901	;
T_J91	T_J72	5000	4.041192513677109	3.766619750124089	0.15	4	0	0	1	T_L903	;
T_J91	T_J53	5000	0.7290815562248016	0.6795452035094418	0.15	4	0	0	1	T_L902	;
T_J91	T_J92	5000	1.0670393984507556	0.9945410070821166	0.15	4	0	0	1	T_L127	;
T_J92	T_J73	6600	0.5300662892759724	0.32936782023370026	0.15	4	0	0	1	T_L137	;
T_J92	T_J105	6600	3.9015681845708707	2.4243213244149864	0.15	4	0	0	1	T_L149	;
T_J92	T_J157	5000	3.189865787995396	2.9731351418287306	0.15	4	0	0	1	T_L1016	;
T_J92	T_J91	5000	1.0670393984507556	0.9945410070821166	0.15	4	0	0	1	T_L904	;
T_J93	T_J56	5000	2.3666082918826787	2.2058126414031483	0.15	4	0	0	1	T_L905	;
T_J93	T_J83	5000	0.6696388689832341	0.6241412604884717	0.15	4	0	0	1	T_L935	;
T_J93	T_J110	5000	1.5519417464960272	1.4464973924429745	0.15	4	0	0	1	T_L939	;
T_J93	T_J94	5000	2.2147509629372997	2.064273030886969	0.15	4	0	0	1	T_L161	;
T_J94	T_J111	5000	0.7405838577786983	0.6902659984377112	0.15	4	0	0	1	T_L941	;
T_J94	T_J116	6600	0.8393228012227754	0.48141309075562816	0.15	4	0	0	1	T_L168	;
T_J94	T_J93	5000	2.2147509629372997	2.064273030886969	0.15	4	0	0	1	T_L938	;
T_J94	T_J56	6600	2.27916613612501	1.3072686841570462	0.15	4	0	0	1	T_L906	;
T_J95	T_J126	5000	0.39453191474332383	0.36772603559396083	0.15	4	0	0	1	T_L190	;
T_J95	T_J130	6600	1.040495862118869	0.5968005732375358	0.15	4	0	0	1	T_L194	;
T_J95	T_J84	6600	2.311889171405902	1.3260377412236832	0.15	4	0	0	1	T_L130	;
T_J95	T_J96	5000	1.019259338356675	0.9500072915010382	0.15	4	0	0	1	T_L192	;
T_J96	T_J84	5000	2.082300072274856	1.9408213173142495	0.15	4	0	0	1	T_L131	;
T_J96	T_J95	5000	1.019259338356675	0.9500072915010382	0.15	4	0	0	1	T_L969	;
T_J96	T_J87	5000	3.009202287442993	2.8047465518261103	0.15	4	0	0	1	T_L973	;
T_J96	T_J131	5000	1.6039105933963802	1.4949352939939533	0.15	4	0	0	1	T_L972	;
T_J97	T_J99	5000	1.0072252491122657	0.9387908403992065	0.15	4	0	0	1	T_L933	;
T_J97	T_J43	5000	2.047095546107346	1.9080087098704017	0.15	4	0	0	1	T_L909	;
T_J97	T_J108	5000	1.4528377812308237	1.3541268974417673	0.15	4	0	0	1	T_L934	;
T_J98	T_J73	6600	3.210671591897521	1.9950182177289542	0.15	4	0	0	1	T_L138	;
T_J98	T_J103	5000	3.8737223401227268	3.6105280863065983	0.15	4	0	0	1	T_L146	;
T_J98	T_J82	6600	0.7545636288498735	0.46886395662207475	0.15	4	0	0	1	T_L911	;
T_J99	T_J135	5000	1.4127158275706047	1.3167309697400613	0.15	4	0	0	1	T_L202	;
T_J99	T_J97	5000	1.0072252491122657	0.9387908403992065	0.15	4	0	0	1	T_L156	;
T_J99	T_J76	5000	2.020784482118912	1.8834853116580654	0.15	4	0	0	1	T_L913	;
T_J99	T_J78	5000	1.4807599662193802	1.380151951454554	0.15	4	0	0	1	T_L155	;
T_J100	T_J67	5000	3.0176125572096772	2.8125853984289013	0.15	4	0	0	1	T_L919	;
T_J100	T_J101	5000	0.5722692560166088	0.5333872798204444	0.15	4	0	0	1	T_L918	;
T_J100	T_J66	5000	2.4747545849776387	2.3066110968332105	0.15	4	0	0	1	T_L916	;
T_J100	T_J72	5000	1.0189452506683323	0.9497145440295486	0.15	4	0	0	1	T_L917	;
T_J101	T_J105	6600	0.9641604356302532	0.599101334048006	0.15	4	0	0	1	T_L150	;
T_J101	T_J117	5000	2.5955633813927848	2.419211720789124	0.15	4	0	0	1	T_L946	;
T_J101	T_J100	5000	0.5722692560166088	0.5333872798204444	0.15	4	0	0	1	T_L141	;
T_J101	T_J118	6600	2.5235795319655243	1.5680791373569498	0.15	4	0	0	1	T_L170	;
T_J102	T_J67	5000	2.078720544357395	1.9374849950518482	0.15	4	0	0	1	T_L921	;
T_J102	T_J104	5000	4.2476871049775875	3.959084376160543	0.15	4	0	0	1	T_L219	;
T_J102	T_J118	5000	1.0444927332878764	0.9735262412637316	0.15	4	0	0	1	T_L216	;
T_J102	T_J143	5000	0.6854091394484628	0.6388400435823461	0.15	4	0	0	1	T_L1006	;
T_J103	T_J172	5000	3.9261492570945777	3.6593929350451724	0.15	4	0	0	1	T_L1035	;
T_J103	T_J171	5000	0.6741286069243572	0.6283259499197921	0.15	4	0	0	1	T_L1034	;
T_J103	T_J98	5000	3.8737223401227268	3.6105280863065983	0.15	4	0	0	1	T_L923	;
T_J104	T_J102	5000	4.2476871049775875	3.959084376160543	0.15	4	0	0	1	T_L996	;
T_J104	T_J89	5000	3.676237716448129	3.426461259160635	0.15	4	0	0	1	T_L924	;
T_J105	T_J92	6600	3.9015681845708707	2.4243213244149864	0.15	4	0	0	1	T_L926	;
T_J105	T_J101	6600	0.9641604356302532	0.599101334048006	0.15	4	0	0	1	T_L927	;
T_J105	T_J72	5000	0.7960294962286747	0.7419444661516618	0.15	4	0	0	1	T_L925	;
T_J106	T_J90	5000	2.337084518880593	2.1782948168720293	0.15	4	0	0	1	T_L154	;
T_J106	T_J78	5000	1.5704675576897282	1.4637644951838362	0.15	4	0	0	1	T_L152	;
T_J106	T_J107	5000	0.7531851007178308	0.7020110688272089	0.15	4	0	0	1	T_L930	;
T_J106	T_J47	5000	1.9293074088863578	1.7982235109506874	0.15	4	0	0	1	T_L928	;
T_J107	T_J129	5000	0.31232207451783206	0.2911018196478298	0.15	4	0	0	1	T_L193	;
T_J107	T_J140	6600	2.3366732723605868	1.3402532380799725	0.15	4	0	0	1	T_L987	;
T_J107	T_J106	5000	0.7531851007178308	0.7020110688272089	0.15	4	0	0	1	T_L153	;
T_J107	T_J113	6600	0.9071565732501	0.5203207265326042	0.15	4	0	0	1	T_L177	;
T_J108	T_J97	5000	1.4528377812308237	1.3541268974417673	0.15	4	0	0	1	T_L157	;
T_J108	T_J135	5000	0.9806104524106487	0.9139843461372859	0.15	4	0	0	1	T_L203	;
T_J108	T_J138	5000	2.214538969233017	2.064075440776934	0.15	4	0	0	1	T_L205	;
T_J108	T_J167	5000	1.6331792469338278	1.5222153327697794	0.15	4	0	0	1	T_L1027	;
T_J109	T_J81	5000	2.2139724288713563	2.0635473931503356	0.15	4	0	0	1	T_L160	;
T_J110	T_J93	5000	1.5519417464960272	1.4464973924429745	0.15	4	0	0	1	T_L162	;
T_J110	T_J132	5000	2.971810357566528	2.7698951605372066	0.15	4	0	0	1	T_L213	;
T_J110	T_J141	5000	1.575740560097724	1.4686792313527242	0.15	4	0	0	1	T_L215	;
T_J110	T_J138	5000	2.215875036973391	2.0653207313987894	0.15	4	0	0	1	T_L214	;
T_J111	T_J114	5000	2.0086736078790013	1.8721972926020745	0.15	4	0	0	1	T_L171	;
T_J111	T_J88	5000	2.181070060924294	2.032880527239884	0.15	4	0	0	1	T_L940	;
T_J111	T_J94	5000	0.7405838577786983	0.6902659984377112	0.15	4	0	0	1	T_L164	;
T_J111	T_J116	5000	0.6653275418175865	0.6201228599801033	0.15	4	0	0	1	T_L172	;
T_J112	T_J90	6600	0.6400261378322704	0.3671018596532083	0.15	4	0	0	1	T_L175	;
T_J112	T_J120	5000	2.1254736310201117	1.9810615133708966	0.15	4	0	0	1	T_L176	;
T_J112	T_J113	6600	0.9387273163158595	0.5384288596306173	0.15	4	0	0	1	T_L165	;
T_J113	T_J112	6600	0.9387273163158595	0.5384288596306173	0.15	4	0	0	1	T_L942	;
T_J113	T_J129	5000	0.9384440668284306	0.8746828923738732	0.15	4	0	0	1	T_L968	;
T_J113	T_J107	6600	0.9071565732501	0.5203207265326042	0.15	4	0	0	1	T_L954	;
T_J114	T_J119	5000	2.3203751520487796	2.1627207429055537	0.15	4	0	0	1	T_L174	;
T_J114	T_J111	5000	2.0086736078790013	1.8721972926020745	0.15	4	0	0	1	T_L948	;
T_J114	T_J57	5000	2.158364237996761	2.011717417392428	0.15	4	0	0	1	T_L943	;
T_J115	T_J63	5000	1.307093886160891	1.2182853527065183	0.15	4	0	0	1	T_L944	;
T_J116	T_J111	5000	0.6653275418175865	0.6201228599801033	0.15	4	0	0	1	T_L949	;
T_J116	T_J94	6600	0.8393228012227754	0.48141309075562816	0.15	4	0	0	1	T_L945	;
T_J116	T_J132	5000	1.095427272972867	1.0210001100516348	0.15	4	0	0	1	T_L974	;
T_J116	T_J133	6600	1.4710107920081232	0.8437324124685042	0.15	4	0	0	1	T_L975	;