<NUMBER OF ZONES> 484
<TOTAL OD FLOW> 652945
<END OF METADATA>


Origin  T_J1
    T_J102 :    5.0;    T_J103 :    5.0;    T_J12 :    5.0;    T_J121 :    5.0;
    T_J127 :    5.0;    T_J129 :    5.0;    T_J132 :    5.0;    T_J133 :    5.0;    T_J139 :    5.0;
    T_J143 :    10.0;    T_J146 :    5.0;    T_J147 :    5.0;    T_J15 :    15.0;    T_J152 :    5.0;
    T_J16 :    5.0;    T_J161 :    10.0;    T_J166 :    5.0;    T_J167 :    5.0;    T_J169 :    5.0;
    T_J17 :    5.0;    T_J173 :    5.0;    T_J174 :    5.0;    T_J175 :    10.0;    T_J176 :    5.0;
    T_J181 :    10.0;    T_J182 :    5.0;    T_J183 :    15.0;    T_J188 :    5.0;    T_J189 :    5.0;
    T_J190 :    5.0;    T_J192 :    5.0;    T_J195 :    10.0;    T_J199 :    5.0;    T_J20 :    5.0;
    T_J202 :    5.0;    T_J204 :    10.0;    T_J207 :    5.0;    T_J21 :    10.0;    T_J210 :    5.0;
    T_J213 :    5.0;    T_J214 :    5.0;    T_J216 :    5.0;    T_J219 :    5.0;    T_J220 :    10.0;
    T_J223 :    10.0;    T_J226 :    10.0;    T_J228 :    10.0;    T_J23 :    5.0;    T_J233 :    15.0;
    T_J239 :    5.0;    T_J240 :    15.0;    T_J241 :    5.0;    T_J244 :    10.0;    T_J247 :    20.0;
    T_J249 :    10.0;    T_J250 :    5.0;    T_J252 :    5.0;    T_J254 :    15.0;    T_J255 :    5.0;
    T_J256 :    10.0;    T_J258 :    5.0;    T_J26 :    5.0;    T_J260 :    5.0;    T_J262 :    5.0;
    T_J263 :    5.0;    T_J265 :    10.0;    T_J267 :    15.0;    T_J268 :    10.0;    T_J27 :    5.0;
    T_J271 :    10.0;    T_J28 :    5.0;    T_J280 :    5.0;    T_J285 :    5.0;    T_J286 :    5.0;
    T_J287 :    5.0;    T_J288 :    5.0;    T_J289 :    5.0;    T_J292 :    30.0;    T_J293 :    10.0;
    T_J295 :    5.0;    T_J297 :    5.0;    T_J299 :    5.0;    T_J302 :    20.0;    T_J304 :    5.0;
    T_J306 :    5.0;    T_J310 :    10.0;    T_J311 :    5.0;    T_J313 :    5.0;    T_J314 :    5.0;
    T_J317 :    5.0;    T_J318 :    5.0;    T_J32 :    5.0;    T_J323 :    5.0;    T_J324 :    5.0;
    T_J325 :    5.0;    T_J326 :    10.0;    T_J327 :    10.0;    T_J328 :    10.0;    T_J329 :    5.0;
    T_J331 :    5.0;    T_J334 :    10.0;    T_J335 :    5.0;    T_J337 :    10.0;    T_J338 :    5.0;
    T_J340 :    5.0;    T_J341 :    5.0;    T_J342 :    5.0;    T_J343 :    10.0;    T_J345 :    5.0;
    T_J347 :    5.0;    T_J351 :    10.0;    T_J354 :    5.0;    T_J361 :    5.0;    T_J362 :    5.0;
    T_J363 :    10.0;    T_J365 :    5.0;    T_J368 :    15.0;    T_J369 :    5.0;    T_J372 :    5.0;
    T_J376 :    5.0;    T_J378 :    5.0;    T_J379 :    5.0;    T_J382 :    20.0;    T_J383 :    5.0;
    T_J386 :    5.0;    T_J387 :    5.0;    T_J388 :    5.0;    T_J389 :    10.0;    T_J39 :    5.0;
    T_J394 :    10.0;    T_J395 :    5.0;    T_J396 :    10.0;    T_J397 :    10.0;    T_J40 :    5.0;
    T_J401 :    10.0;    T_J402 :    5.0;    T_J403 :    5.0;    T_J404 :    10.0;    T_J406 :    20.0;
    T_J407 :    5.0;    T_J409 :    5.0;    T_J412 :    5.0;    T_J413 :    25.0;    T_J414 :    5.0;
    T_J415 :    10.0;    T_J417 :    5.0;    T_J418 :    10.0;    T_J419 :    5.0;    T_J42 :    5.0;
    T_J421 :    5.0;    T_J422 :    15.0;    T_J425 :    5.0;    T_J426 :    5.0;    T_J429 :    5.0;
    T_J43 :    5.0;    T_J431 :    15.0;    T_J433 :    5.0;    T_J436 :    5.0;    T_J44 :    5.0;
    T_J445 :    5.0;    T_J447 :    5.0;    T_J451 :    5.0;    T_J453 :    5.0;    T_J456 :    5.0;
    T_J457 :    5.0;    T_J46 :    5.0;    T_J461 :    5.0;    T_J463 :    5.0;    T_J465 :    5.0;
    T_J467 :    5.0;    T_J468 :    10.0;    T_J47 :    10.0;    T_J473 :    5.0;    T_J474 :    5.0;
    T_J476 :    5.0;    T_J477 :    5.0;    T_J478 :    5.0;    T_J48 :    5.0;    T_J5 :    5.0;
    T_J50 :    5.0;    T_J54 :    5.0;    T_J58 :    5.0;    T_J59 :    5.0;    T_J60 :    10.0;
    T_J61 :    15.0;    T_J63 :    5.0;    T_J70 :    5.0;    T_J73 :    5.0;    T_J75 :    5.0;
    T_J77 :    5.0;    T_J78 :    5.0;    T_J80 :    5.0;    T_J84 :    5.0;    T_J86 :    5.0;
    T_J87 :    10.0;    T_J90 :    5.0;    T_J93 :    5.0;

Origin  T_J102
    T_J1 :    5.0;    T_J103 :    5.0;    T_J104 :    5.0;    T_J105 :    5.0;
    T_J107 :    5.0;    T_J110 :    5.0;    T_J12 :    5.0;    T_J123 :    5.0;    T_J125 :    5.0;
    T_J127 :    5.0;    T_J129 :    5.0;    T_J131 :    5.0;    T_J133 :    5.0;    T_J139 :    5.0;
    T_J141 :    5.0;    T_J143 :    5.0;    T_J144 :    5.0;    T_J146 :    5.0;    T_J147 :    10.0;
    T_J149 :    5.0;    T_J15 :    10.0;    T_J152 :    5.0;    T_J153 :    5.0;    T_J154 :    5.0;
    T_J161 :    5.0;    T_J162 :    10.0;    T_J163 :    5.0;    T_J164 :    5.0;    T_J167 :    5.0;
    T_J169 :    5.0;    T_J174 :    10.0;    T_J175 :    5.0;    T_J176 :    10.0;    T_J177 :    5.0;
    T_J181 :    10.0;    T_J182 :    5.0;    T_J183 :    25.0;    T_J185 :    5.0;    T_J188 :    5.0;
    T_J192 :    5.0;    T_J199 :    5.0;    T_J200 :    5.0;    T_J201 :    5.0;    T_J202 :    5.0;
    T_J204 :    5.0;    T_J205 :    5.0;    T_J207 :    5.0;    T_J208 :    5.0;    T_J21 :    5.0;
    T_J210 :    5.0;    T_J214 :    15.0;    T_J216 :    5.0;    T_J217 :    10.0;    T_J219 :    5.0;
    T_J220 :    5.0;    T_J222 :    5.0;    T_J224 :    5.0;    T_J225 :    5.0;    T_J226 :    5.0;
    T_J228 :    5.0;    T_J23 :    5.0;    T_J231 :    5.0;    T_J232 :    5.0;    T_J233 :    10.0;
    T_J234 :    10.0;    T_J235 :    5.0;    T_J236 :    5.0;    T_J237 :    10.0;    T_J238 :    5.0;
    T_J240 :    15.0;    T_J241 :    5.0;    T_J242 :    5.0;    T_J244 :    5.0;    T_J247 :    5.0;
    T_J249 :    10.0;    T_J25 :    5.0;    T_J252 :    10.0;    T_J254 :    15.0;    T_J255 :    5.0;
    T_J256 :    10.0;    T_J257 :    5.0;    T_J26 :    5.0;    T_J260 :    5.0;    T_J263 :    20.0;
    T_J265 :    5.0;    T_J267 :    5.0;    T_J268 :    5.0;    T_J27 :    5.0;    T_J271 :    5.0;
    T_J277 :    5.0;    T_J279 :    5.0;    T_J28 :    5.0;    T_J280 :    10.0;    T_J285 :    20.0;
    T_J286 :    10.0;    T_J287 :    5.0;    T_J289 :    5.0;    T_J292 :    10.0;    T_J293 :    5.0;
    T_J297 :    5.0;    T_J298 :    5.0;    T_J299 :    5.0;    T_J3 :    5.0;    T_J30 :    5.0;
    T_J303 :    10.0;    T_J304 :    5.0;    T_J305 :    5.0;    T_J306 :    15.0;    T_J311 :    5.0;
    T_J314 :    10.0;    T_J317 :    20.0;    T_J318 :    10.0;    T_J321 :    10.0;    T_J324 :    5.0;
    T_J325 :    5.0;    T_J326 :    10.0;    T_J327 :    10.0;    T_J328 :    5.0;    T_J335 :    5.0;
    T_J338 :    5.0;    T_J339 :    5.0;    T_J340 :    5.0;    T_J341 :    5.0;    T_J345 :    10.0;
    T_J348 :    5.0;    T_J351 :    10.0;    T_J354 :    10.0;    T_J359 :    5.0;    T_J361 :    5.0;
    T_J363 :    5.0;    T_J368 :    10.0;    T_J369 :    5.0;    T_J370 :    5.0;    T_J375 :    5.0;
    T_J378 :    5.0;    T_J381 :    5.0;    T_J382 :    5.0;    T_J387 :    5.0;    T_J389 :    10.0;
    T_J39 :    5.0;    T_J391 :    5.0;    T_J394 :    5.0;    T_J395 :    5.0;    T_J396 :    5.0;
    T_J397 :    5.0;    T_J401 :    10.0;    T_J403 :    10.0;    T_J404 :    5.0;    T_J405 :    5.0;
    T_J412 :    10.0;    T_J413 :    15.0;    T_J414 :    5.0;    T_J415 :    5.0;    T_J418 :    5.0;
    T_J419 :    5.0;    T_J42 :    5.0;    T_J421 :    5.0;    T_J422 :    20.0;    T_J425 :    5.0;
    T_J429 :    5.0;    T_J43 :    5.0;    T_J431 :    10.0;    T_J434 :    20.0;    T_J436 :    5.0;
    T_J442 :    5.0;    T_J45 :    5.0;    T_J451 :    10.0;    T_J457 :    5.0;    T_J458 :    5.0;
    T_J46 :    5.0;    T_J461 :    5.0;    T_J465 :    5.0;    T_J47 :    15.0;    T_J471 :    5.0;
    T_J474 :    5.0;    T_J476 :    10.0;    T_J479 :    5.0;    T_J48 :    5.0;    T_J483 :    10.0;
    T_J5 :    5.0;    T_J50 :    5.0;    T_J54 :    5.0;    T_J58 :    10.0;    T_J59 :    5.0;
    T_J61 :    10.0;    T_J63 :    5.0;    T_J72 :    5.0;    T_J74 :    5.0;    T_J75 :    5.0;
    T_J78 :    5.0;    T_J80 :    5.0;    T_J83 :    5.0;    T_J84 :    5.0;    T_J87 :    30.0;
    T_J96 :    15.0;

Origin  T_J103
    T_J1 :    5.0;    T_J102 :    5.0;    T_J104 :    5.0;    T_J105 :    25.0;
    T_J108 :    5.0;    T_J12 :    5.0;    T_J123 :    10.0;    T_J125 :    20.0;    T_J127 :    10.0;
    T_J129 :    5.0;    T_J131 :    5.0;    T_J132 :    10.0;    T_J134 :    5.0;    T_J135 :    10.0;
    T_J138 :    5.0;    T_J139 :    20.0;    T_J141 :    5.0;    T_J143 :    10.0;    T_J144 :    10.0;
    T_J146 :    15.0;    T_J147 :    30.0;    T_J15 :    10.0;    T_J152 :    10.0;    T_J153 :    35.0;
    T_J154 :    5.0;    T_J157 :    5.0;    T_J16 :    5.0;    T_J160 :    15.0;    T_J161 :    15.0;
    T_J162 :    5.0;    T_J164 :    5.0;    T_J167 :    5.0;    T_J168 :    5.0;    T_J17 :    5.0;
    T_J174 :    5.0;    T_J175 :    10.0;    T_J176 :    10.0;    T_J177 :    5.0;    T_J178 :    5.0;
    T_J183 :    15.0;    T_J185 :    10.0;    T_J188 :    25.0;    T_J190 :    5.0;    T_J192 :    5.0;
    T_J195 :    20.0;    T_J199 :    10.0;    T_J20 :    5.0;    T_J200 :    5.0;    T_J202 :    15.0;
    T_J204 :    10.0;    T_J206 :    5.0;    T_J207 :    5.0;    T_J208 :    5.0;    T_J209 :    5.0;
    T_J21 :    5.0;    T_J210 :    5.0;    T_J213 :    5.0;    T_J214 :    15.0;    T_J216 :    10.0;
    T_J217 :    10.0;    T_J219 :    5.0;    T_J220 :    5.0;    T_J222 :    5.0;    T_J223 :    15.0;
    T_J224 :    5.0;    T_J225 :    10.0;    T_J226 :    35.0;    T_J228 :    15.0;    T_J231 :    10.0;
    T_J233 :    35.0;    T_J234 :    5.0;    T_J235 :    10.0;    T_J236 :    15.0;    T_J240 :    15.0;
    T_J241 :    10.0;    T_J242 :    10.0;    T_J244 :    5.0;    T_J245 :    10.0;    T_J247 :    5.0;
    T_J249 :    25.0;    T_J25 :    5.0;    T_J250 :    5.0;    T_J252 :    5.0;    T_J253 :    5.0;
    T_J254 :    20.0;    T_J255 :    10.0;    T_J256 :    30.0;    T_J257 :    25.0;    T_J258 :    15.0;
    T_J26 :    5.0;    T_J260 :    10.0;    T_J262 :    5.0;    T_J263 :    10.0;    T_J264 :    10.0;
    T_J265 :    20.0;    T_J267 :    15.0;    T_J268 :    5.0;    T_J27 :    5.0;    T_J271 :    20.0;
    T_J272 :    10.0;    T_J273 :    5.0;    T_J277 :    10.0;    T_J279 :    5.0;    T_J28 :    5.0;
    T_J280 :    5.0;    T_J285 :    25.0;    T_J286 :    20.0;    T_J287 :    10.0;    T_J288 :    10.0;
    T_J289 :    20.0;    T_J292 :    10.0;    T_J293 :    5.0;    T_J295 :    20.0;    T_J297 :    10.0;
    T_J298 :    5.0;    T_J299 :    5.0;    T_J3 :    10.0;    T_J302 :    15.0;    T_J304 :    5.0;
    T_J305 :    10.0;    T_J306 :    25.0;    T_J310 :    15.0;    T_J311 :    10.0;    T_J312 :    20.0;
    T_J313 :    5.0;    T_J314 :    10.0;    T_J317 :    10.0;    T_J318 :    10.0;    T_J319 :    10.0;
    T_J32 :    5.0;    T_J324 :    5.0;    T_J325 :    5.0;    T_J326 :    5.0;    T_J327 :    10.0;
    T_J328 :    10.0;    T_J33 :    5.0;    T_J330 :    15.0;    T_J331 :    10.0;    T_J333 :    10.0;
    T_J334 :    5.0;    T_J335 :    10.0;    T_J336 :    5.0;    T_J337 :    10.0;    T_J338 :    10.0;
    T_J339 :    15.0;    T_J340 :    20.0;    T_J341 :    5.0;    T_J342 :    5.0;    T_J343 :    10.0;
    T_J345 :    5.0;    T_J347 :    10.0;    T_J348 :    10.0;    T_J350 :    25.0;    T_J351 :    5.0;
    T_J353 :    5.0;    T_J354 :    10.0;    T_J359 :    5.0;    T_J362 :    5.0;    T_J363 :    10.0;
    T_J365 :    5.0;    T_J366 :    10.0;    T_J368 :    5.0;    T_J370 :    10.0;    T_J372 :    5.0;
    T_J373 :    15.0;    T_J375 :    5.0;    T_J376 :    10.0;    T_J378 :    10.0;    T_J379 :    5.0;
    T_J38 :    10.0;    T_J383 :    5.0;    T_J386 :    5.0;    T_J388 :    10.0;    T_J389 :    10.0;
    T_J391 :    10.0;    T_J394 :    15.0;    T_J396 :    10.0;    T_J397 :    15.0;    T_J401 :    10.0;
    T_J402 :    5.0;    T_J403 :    10.0;    T_J404 :    10.0;    T_J405 :    20.0;    T_J406 :    30.0;
    T_J410 :    5.0;    T_J411 :    5.0;    T_J412 :    20.0;    T_J413 :    50.0;    T_J414 :    5.0;
    T_J415 :    5.0;    T_J416 :    5.0;    T_J417 :    15.0;    T_J419 :    5.0;    T_J42 :    10.0;
    T_J421 :    10.0;    T_J422 :    15.0;    T_J426 :    10.0;    T_J428 :    20.0;    T_J429 :    10.0;
    T_J43 :    10.0;    T_J431 :    25.0;    T_J433 :    10.0;    T_J434 :    5.0;    T_J435 :    10.0;
    T_J436 :    5.0;    T_J44 :    5.0;    T_J444 :    5.0;    T_J445 :    10.0;    T_J447 :    5.0;
    T_J451 :    5.0;    T_J453 :    5.0;    T_J456 :    10.0;    T_J457 :    10.0;    T_J458 :    10.0;
    T_J46 :    10.0;    T_J461 :    15.0;    T_J463 :    5.0;    T_J465 :    15.0;    T_J467 :    5.0;
    T_J468 :    5.0;    T_J47 :    10.0;    T_J470 :    10.0;    T_J473 :    5.0;    T_J474 :    5.0;
    T_J476 :    15.0;    T_J477 :    20.0;    T_J478 :    5.0;    T_J479 :    10.0;    T_J48 :    5.0;
    T_J483 :    15.0;    T_J49 :    15.0;    T_J5 :    10.0;    T_J50 :    5.0;    T_J51 :    5.0;
    T_J53 :    10.0;    T_J56 :    5.0;    T_J58 :    30.0;    T_J60 :    10.0;    T_J61 :    10.0;
    T_J62 :    5.0;    T_J63 :    10.0;    T_J67 :    5.0;    T_J72 :    5.0;    T_J73 :    5.0;
    T_J74 :    10.0;    T_J75 :    5.0;    T_J78 :    10.0;    T_J83 :    5.0;    T_J84 :    5.0;
    T_J87 :    20.0;    T_J88 :    5.0;    T_J90 :    5.0;    T_J92 :    10.0;    T_J96 :    5.0;
    T_J98 :    5.0;

Origin  T_J104
    T_J103 :    20.0;    T_J105 :    5.0;    T_J108 :    5.0;    T_J116 :    5.0;
    T_J12 :    5.0;    T_J121 :    5.0;    T_J125 :    10.0;    T_J129 :    5.0;    T_J131 :    5.0;
    T_J132 :    5.0;    T_J133 :    5.0;    T_J139 :    5.0;    T_J143 :    5.0;    T_J144 :    5.0;
    T_J146 :    5.0;    T_J147 :    5.0;    T_J148 :    5.0;    T_J149 :    5.0;    T_J15 :    5.0;
    T_J153 :    10.0;    T_J154 :    5.0;    T_J157 :    5.0;    T_J161 :    5.0;    T_J168 :    5.0;
    T_J169 :    5.0;    T_J174 :    5.0;    T_J175 :    5.0;    T_J176 :    5.0;    T_J177 :    5.0;
    T_J178 :    5.0;    T_J181 :    10.0;    T_J183 :    10.0;    T_J185 :    5.0;    T_J188 :    5.0;
    T_J189 :    5.0;    T_J195 :    10.0;    T_J198 :    5.0;    T_J199 :    5.0;    T_J20 :    5.0;
    T_J200 :    5.0;    T_J202 :    10.0;    T_J204 :    5.0;    T_J206 :    5.0;    T_J208 :    5.0;
    T_J21 :    5.0;    T_J210 :    10.0;    T_J213 :    5.0;    T_J214 :    15.0;    T_J215 :    5.0;
    T_J216 :    5.0;    T_J217 :    15.0;    T_J219 :    5.0;    T_J220 :    5.0;    T_J221 :    5.0;
    T_J223 :    10.0;    T_J225 :    5.0;    T_J228 :    5.0;    T_J23 :    5.0;    T_J233 :    10.0;
    T_J234 :    5.0;    T_J235 :    5.0;    T_J236 :    5.0;    T_J237 :    5.0;    T_J238 :    5.0;
    T_J239 :    5.0;    T_J240 :    5.0;    T_J245 :    5.0;    T_J249 :    20.0;    T_J250 :    10.0;
    T_J252 :    5.0;    T_J253 :    5.0;    T_J254 :    15.0;    T_J255 :    5.0;    T_J256 :    20.0;
    T_J257 :    5.0;    T_J258 :    5.0;    T_J260 :    5.0;    T_J263 :    5.0;    T_J265 :    10.0;
    T_J267 :    15.0;    T_J268 :    5.0;    T_J27 :    5.0;    T_J271 :    10.0;    T_J272 :    5.0;
    T_J273 :    5.0;    T_J277 :    5.0;    T_J280 :    10.0;    T_J285 :    10.0;    T_J286 :    5.0;
    T_J287 :    10.0;    T_J289 :    5.0;    T_J292 :    10.0;    T_J293 :    10.0;    T_J295 :    5.0;
    T_J298 :    5.0;    T_J299 :    5.0;    T_J30 :    5.0;    T_J303 :    10.0;    T_J304 :    5.0;
    T_J306 :    10.0;    T_J310 :    15.0;    T_J311 :    5.0;    T_J314 :    5.0;    T_J317 :    10.0;
    T_J318 :    10.0;    T_J32 :    5.0;    T_J321 :    5.0;    T_J323 :    5.0;    T_J324 :    5.0;
    T_J326 :    5.0;    T_J327 :    5.0;    T_J328 :    10.0;    T_J33 :    5.0;    T_J330 :    5.0;
    T_J331 :    5.0;    T_J333 :    5.0;    T_J334 :    10.0;    T_J336 :    5.0;    T_J337 :    5.0;
    T_J338 :    5.0;    T_J339 :    5.0;    T_J340 :    5.0;    T_J343 :    5.0;    T_J348 :    5.0;
    T_J354 :    10.0;    T_J359 :    5.0;    T_J36 :    5.0;    T_J362 :    5.0;    T_J363 :    15.0;
    T_J365 :    10.0;    T_J366 :    5.0;    T_J368 :    10.0;    T_J369 :    5.0;    T_J370 :    5.0;
    T_J375 :    5.0;    T_J378 :    5.0;    T_J382 :    5.0;    T_J386 :    10.0;    T_J387 :    5.0;
    T_J388 :    5.0;    T_J389 :    10.0;    T_J39 :    5.0;    T_J391 :    5.0;    T_J394 :    5.0;
    T_J396 :    10.0;    T_J397 :    5.0;    T_J40 :    5.0;    T_J403 :    10.0;    T_J404 :    5.0;
    T_J406 :    5.0;    T_J410 :    5.0;    T_J412 :    15.0;    T_J413 :    20.0;    T_J414 :    5.0;
    T_J415 :    5.0;    T_J416 :    5.0;    T_J421 :    5.0;    T_J422 :    10.0;    T_J425 :    10.0;
    T_J426 :    5.0;    T_J428 :    5.0;    T_J431 :    5.0;    T_J433 :    5.0;    T_J434 :    5.0;
    T_J445 :    5.0;    T_J45 :    20.0;    T_J451 :    5.0;    T_J456 :    5.0;    T_J457 :    5.0;
    T_J458 :    5.0;    T_J461 :    10.0;    T_J467 :    5.0;    T_J468 :    15.0;    T_J47 :    10.0;
    T_J470 :    5.0;    T_J471 :    5.0;    T_J473 :    5.0;    T_J474 :    5.0;    T_J475 :    5.0;
    T_J476 :    10.0;    T_J477 :    5.0;    T_J478 :    5.0;    T_J48 :    5.0;    T_J483 :    15.0;
    T_J49 :    5.0;    T_J5 :    5.0;    T_J50 :    5.0;    T_J51 :    5.0;    T_J54 :    5.0;
    T_J58 :    5.0;    T_J61 :    5.0;    T_J63 :    5.0;    T_J67 :    5.0;    T_J70 :    5.0;
    T_J74 :    5.0;    T_J75 :    5.0;    T_J77 :    5.0;    T_J86 :    5.0;    T_J87 :    15.0;
    T_J88 :    5.0;    T_J90 :    5.0;    T_J92 :    5.0;    T_J93 :    5.0;    T_J96 :    5.0;


Origin  T_J105
    T_J1 :    5.0;    T_J116 :    5.0;    T_J12 :    5.0;    T_J123 :    5.0;
    T_J125 :    5.0;    T_J127 :    5.0;    T_J129 :    5.0;    T_J131 :    5.0;    T_J133 :    5.0;
    T_J135 :    5.0;    T_J136 :    5.0;    T_J139 :    5.0;    T_J143 :    5.0;    T_J146 :    5.0;
    T_J148 :    5.0;    T_J15 :    5.0;    T_J152 :    5.0;    T_J153 :    10.0;    T_J154 :    5.0;
    T_J157 :    5.0;    T_J16 :    20.0;    T_J160 :    5.0;    T_J161 :    5.0;    T_J162 :    5.0;
    T_J163 :    5.0;    T_J164 :    5.0;    T_J166 :    5.0;    T_J167 :    5.0;    T_J176 :    10.0;
    T_J177 :    5.0;    T_J178 :    5.0;    T_J181 :    10.0;    T_J182 :    5.0;    T_J183 :    10.0;
    T_J188 :    5.0;    T_J190 :    5.0;    T_J192 :    5.0;    T_J195 :    10.0;    T_J20 :    5.0;
    T_J200 :    5.0;    T_J201 :    5.0;    T_J202 :    10.0;    T_J204 :    10.0;    T_J207 :    5.0;
    T_J21 :    10.0;    T_J210 :    15.0;    T_J213 :    5.0;    T_J216 :    10.0;    T_J220 :    5.0;
    T_J221 :    5.0;    T_J222 :    5.0;    T_J223 :    10.0;    T_J225 :    5.0;    T_J226 :    15.0;
    T_J230 :    5.0;    T_J233 :    10.0;    T_J234 :    5.0;    T_J235 :    5.0;    T_J236 :    5.0;
    T_J240 :    35.0;    T_J241 :    5.0;    T_J242 :    10.0;    T_J244 :    15.0;    T_J245 :    5.0;
    T_J247 :    5.0;    T_J249 :    10.0;    T_J25 :    5.0;    T_J250 :    5.0;    T_J254 :    5.0;
    T_J255 :    5.0;    T_J256 :    5.0;    T_J257 :    10.0;    T_J260 :    10.0;    T_J262 :    5.0;
    T_J263 :    10.0;    T_J265 :    10.0;    T_J267 :    10.0;    T_J268 :    5.0;    T_J27 :    5.0;
    T_J271 :    10.0;    T_J272 :    5.0;    T_J277 :    10.0;    T_J285 :    10.0;    T_J288 :    5.0;
    T_J289 :    10.0;    T_J292 :    10.0;    T_J293 :    5.0;    T_J295 :    10.0;    T_J299 :    5.0;
    T_J3 :    5.0;    T_J302 :    5.0;    T_J303 :    5.0;    T_J304 :    5.0;    T_J306 :    10.0;
    T_J310 :    5.0;    T_J311 :    20.0;    T_J313 :    5.0;    T_J317 :    5.0;    T_J318 :    5.0;
    T_J32 :    5.0;    T_J321 :    20.0;    T_J323 :    5.0;    T_J325 :    5.0;    T_J326 :    5.0;
    T_J328 :    10.0;    T_J329 :    5.0;    T_J33 :    5.0;    T_J330 :    5.0;    T_J334 :    5.0;
    T_J335 :    5.0;    T_J337 :    10.0;    T_J339 :    5.0;    T_J342 :    5.0;    T_J343 :    15.0;
    T_J345 :    5.0;    T_J350 :    10.0;    T_J354 :    10.0;    T_J359 :    5.0;    T_J36 :    5.0;
    T_J363 :    5.0;    T_J365 :    5.0;    T_J368 :    5.0;    T_J369 :    5.0;    T_J370 :    5.0;
    T_J373 :    10.0;    T_J378 :    5.0;    T_J379 :    5.0;    T_J38 :    5.0;    T_J382 :    5.0;
    T_J387 :    5.0;    T_J391 :    5.0;    T_J395 :    5.0;    T_J396 :    5.0;    T_J397 :    5.0;
    T_J40 :    5.0;    T_J404 :    5.0;    T_J406 :    20.0;    T_J407 :    5.0;    T_J409 :    5.0;
    T_J412 :    10.0;    T_J413 :    10.0;    T_J414 :    10.0;    T_J415 :    5.0;    T_J416 :    5.0;
    T_J417 :    5.0;    T_J418 :    10.0;    T_J42 :    5.0;    T_J422 :    20.0;    T_J428 :    5.0;
    T_J43 :    5.0;    T_J431 :    5.0;    T_J433 :    5.0;    T_J435 :    5.0;    T_J441 :    20.0;
    T_J442 :    5.0;    T_J445 :    5.0;    T_J447 :    5.0;    T_J45 :    5.0;    T_J453 :    5.0;
    T_J456 :    5.0;    T_J457 :    5.0;    T_J461 :    5.0;    T_J467 :    5.0;    T_J468 :    5.0;
    T_J476 :    15.0;    T_J477 :    10.0;    T_J478 :    10.0;    T_J479 :    5.0;    T_J48 :    5.0;
    T_J5 :    5.0;    T_J50 :    5.0;    T_J51 :    5.0;    T_J53 :    5.0;    T_J54 :    10.0;
    T_J58 :    5.0;    T_J59 :    5.0;    T_J6 :    5.0;    T_J61 :    5.0;    T_J62 :    5.0;
    T_J76 :    5.0;    T_J77 :    5.0;    T_J79 :    5.0;    T_J80 :    5.0;    T_J84 :    5.0;
    T_J86 :    5.0;    T_J87 :    10.0;    T_J88 :    5.0;    T_J96 :    30.0;

Origin  T_J107
    T_J1 :    5.0;    T_J103 :    10.0;    T_J104 :    5.0;    T_J105 :    5.0;
    T_J108 :    5.0;    T_J12 :    5.0;    T_J123 :    5.0;    T_J125 :    5.0;    T_J131 :    5.0;
    T_J132 :    5.0;    T_J134 :    5.0;    T_J135 :    5.0;    T_J136 :    5.0;    T_J139 :    10.0;
    T_J146 :    10.0;    T_J149 :    10.0;    T_J15 :    25.0;    T_J152 :    5.0;    T_J153 :    10.0;
    T_J160 :    5.0;    T_J161 :    5.0;    T_J162 :    5.0;    T_J163 :    5.0;    T_J164 :    10.0;
    T_J166 :    15.0;    T_J167 :    5.0;    T_J168 :    5.0;    T_J169 :    5.0;    T_J174 :    5.0;
    T_J175 :    5.0;    T_J176 :    10.0;    T_J177 :    5.0;    T_J181 :    5.0;    T_J182 :    5.0;
    T_J183 :    5.0;    T_J185 :    5.0;    T_J188 :    5.0;    T_J190 :    5.0;    T_J192 :    5.0;
    T_J195 :    5.0;    T_J199 :    10.0;    T_J200 :    15.0;    T_J202 :    20.0;    T_J204 :    5.0;
    T_J206 :    5.0;    T_J207 :    5.0;    T_J208 :    5.0;    T_J209 :    5.0;    T_J21 :    5.0;
    T_J210 :    5.0;    T_J214 :    10.0;    T_J215 :    5.0;    T_J216 :    10.0;    T_J217 :    5.0;
    T_J219 :    5.0;    T_J220 :    10.0;    T_J221 :    5.0;    T_J222 :    5.0;    T_J223 :    10.0;
    T_J226 :    5.0;    T_J228 :    10.0;    T_J231 :    5.0;    T_J232 :    5.0;    T_J233 :    15.0;
    T_J235 :    5.0;    T_J236 :    5.0;    T_J237 :    5.0;    T_J240 :    10.0;    T_J244 :    10.0;
    T_J245 :    5.0;    T_J247 :    5.0;    T_J25 :    5.0;    T_J250 :    5.0;    T_J254 :    5.0;
    T_J255 :    5.0;    T_J256 :    10.0;    T_J257 :    10.0;    T_J258 :    5.0;    T_J260 :    5.0;
    T_J262 :    5.0;    T_J263 :    10.0;    T_J267 :    5.0;    T_J268 :    15.0;    T_J27 :    5.0;
    T_J271 :    15.0;    T_J273 :    5.0;    T_J28 :    5.0;    T_J280 :    5.0;    T_J285 :    20.0;
    T_J289 :    5.0;    T_J292 :    5.0;    T_J295 :    5.0;    T_J297 :    5.0;    T_J299 :    5.0;
    T_J3 :    5.0;    T_J30 :    5.0;    T_J303 :    5.0;    T_J305 :    5.0;    T_J306 :    5.0;
    T_J310 :    10.0;    T_J311 :    5.0;    T_J313 :    5.0;    T_J314 :    10.0;    T_J317 :    10.0;
    T_J318 :    5.0;    T_J321 :    10.0;    T_J323 :    5.0;    T_J324 :    10.0;    T_J326 :    10.0;
    T_J327 :    5.0;    T_J328 :    5.0;    T_J331 :    5.0;    T_J333 :    5.0;    T_J337 :    5.0;
    T_J338 :    5.0;    T_J339 :    5.0;    T_J341 :    5.0;    T_J342 :    5.0;    T_J348 :    5.0;
    T_J350 :    10.0;    T_J351 :    5.0;    T_J354 :    10.0;    T_J359 :    5.0;    T_J36 :    5.0;
    T_J363 :    5.0;    T_J365 :    10.0;    T_J368 :    5.0;    T_J376 :    5.0;    T_J379 :    5.0;
    T_J381 :    5.0;    T_J382 :    5.0;    T_J383 :    5.0;    T_J387 :    5.0;    T_J388 :    5.0;
    T_J389 :    5.0;    T_J394 :    10.0;    T_J396 :    5.0;    T_J397 :    5.0;    T_J40 :    5.0;
    T_J401 :    5.0;    T_J403 :    10.0;    T_J404 :    5.0;    T_J405 :    5.0;    T_J406 :    15.0;
    T_J412 :    10.0;    T_J413 :    10.0;    T_J414 :    5.0;    T_J415 :    5.0;    T_J418 :    5.0;
    T_J419 :    5.0;    T_J42 :    5.0;    T_J422 :    15.0;    T_J425 :    5.0;    T_J428 :    5.0;
    T_J43 :    5.0;    T_J433 :    5.0;    T_J434 :    5.0;    T_J435 :    5.0;    T_J441 :    5.0;
    T_J442 :    5.0;    T_J444 :    5.0;    T_J447 :    5.0;    T_J453 :    5.0;    T_J46 :    5.0;
    T_J461 :    5.0;    T_J463 :    5.0;    T_J468 :    5.0;    T_J47 :    5.0;    T_J471 :    5.0;
    T_J476 :    10.0;    T_J479 :    5.0;    T_J483 :    10.0;    T_J50 :    5.0;    T_J53 :    5.0;
    T_J54 :    5.0;    T_J59 :    5.0;    T_J70 :    5.0;    T_J72 :    5.0;    T_J73 :    5.0;
    T_J75 :    5.0;    T_J76 :    5.0;    T_J80 :    10.0;    T_J86 :    5.0;    T_J87 :    10.0;
    T_J90 :    5.0;    T_J93 :    5.0;    T_J96 :    10.0;    T_J98 :    5.0;    T_J99 :    5.0;


Origin  T_J108
    T_J103 :    5.0;    T_J107 :    5.0;    T_J110 :    5.0;    T_J12 :    5.0;
    T_J121 :    5.0;    T_J123 :    5.0;    T_J129 :    5.0;    T_J133 :    5.0;    T_J134 :    5.0;
    T_J135 :    5.0;    T_J138 :    5.0;    T_J139 :    5.0;    T_J143 :    5.0;    T_J144 :    5.0;
    T_J146 :    5.0;    T_J147 :    5.0;    T_J15 :    5.0;    T_J153 :    5.0;    T_J154 :    5.0;
    T_J157 :    20.0;    T_J16 :    5.0;    T_J161 :    5.0;    T_J164 :    5.0;    T_J166 :    15.0;
    T_J168 :    5.0;    T_J169 :    5.0;    T_J17 :    5.0;    T_J173 :    5.0;    T_J174 :    10.0;
    T_J175 :    5.0;    T_J176 :    5.0;    T_J177 :    5.0;    T_J178 :    5.0;    T_J181 :    15.0;
    T_J182 :    5.0;    T_J183 :    10.0;    T_J185 :    20.0;    T_J188 :    5.0;    T_J190 :    5.0;
    T_J192 :    5.0;    T_J195 :    5.0;    T_J199 :    5.0;    T_J20 :    5.0;    T_J200 :    10.0;
    T_J201 :    5.0;    T_J202 :    10.0;    T_J204 :    5.0;    T_J205 :    5.0;    T_J206 :    5.0;
    T_J207 :    5.0;    T_J209 :    5.0;    T_J21 :    5.0;    T_J214 :    5.0;    T_J217 :    10.0;
    T_J219 :    5.0;    T_J220 :    10.0;    T_J222 :    5.0;    T_J223 :    5.0;    T_J226 :    5.0;
    T_J23 :    5.0;    T_J230 :    5.0;    T_J231 :    10.0;    T_J232 :    10.0;    T_J233 :    5.0;
    T_J235 :    5.0;    T_J236 :    5.0;    T_J238 :    5.0;    T_J239 :    10.0;    T_J240 :    15.0;
    T_J241 :    10.0;    T_J244 :    30.0;    T_J245 :    5.0;    T_J25 :    5.0;    T_J252 :    5.0;
    T_J253 :    5.0;    T_J254 :    5.0;    T_J255 :    5.0;    T_J256 :    30.0;    T_J257 :    10.0;
    T_J258 :    5.0;    T_J26 :    5.0;    T_J262 :    5.0;    T_J263 :    5.0;    T_J265 :    10.0;
    T_J267 :    10.0;    T_J268 :    5.0;    T_J27 :    5.0;    T_J271 :    15.0;    T_J277 :    5.0;
    T_J28 :    5.0;    T_J280 :    5.0;    T_J285 :    25.0;    T_J286 :    10.0;    T_J289 :    10.0;
    T_J292 :    15.0;    T_J293 :    10.0;    T_J295 :    5.0;    T_J303 :    30.0;    T_J304 :    5.0;
    T_J305 :    5.0;    T_J306 :    5.0;    T_J310 :    5.0;    T_J312 :    5.0;    T_J313 :    5.0;
    T_J314 :    5.0;    T_J317 :    5.0;    T_J318 :    10.0;    T_J319 :    5.0;    T_J324 :    5.0;
    T_J325 :    5.0;    T_J327 :    5.0;    T_J328 :    10.0;    T_J329 :    5.0;    T_J33 :    5.0;
    T_J331 :    5.0;    T_J334 :    5.0;    T_J337 :    10.0;    T_J338 :    5.0;    T_J340 :    5.0;
    T_J341 :    5.0;    T_J342 :    5.0;    T_J343 :    10.0;    T_J345 :    5.0;    T_J353 :    10.0;
    T_J354 :    10.0;    T_J361 :    5.0;    T_J362 :    5.0;    T_J363 :    10.0;    T_J365 :    25.0;
    T_J368 :    5.0;    T_J369 :    5.0;    T_J378 :    5.0;    T_J379 :    5.0;    T_J38 :    5.0;
    T_J382 :    5.0;    T_J383 :    5.0;    T_J386 :    5.0;    T_J387 :    5.0;    T_J39 :    5.0;
    T_J391 :    5.0;    T_J394 :    10.0;    T_J395 :    5.0;    T_J396 :    10.0;    T_J397 :    10.0;
    T_J40 :    5.0;    T_J401 :    5.0;    T_J403 :    10.0;    T_J405 :    10.0;    T_J406 :    5.0;
    T_J410 :    5.0;    T_J411 :    5.0;    T_J412 :    10.0;    T_J413 :    10.0;    T_J414 :    5.0;
    T_J415 :    5.0;    T_J416 :    5.0;    T_J417 :    5.0;    T_J418 :    10.0;    T_J421 :    5.0;
    T_J422 :    10.0;    T_J43 :    5.0;    T_J431 :    5.0;    T_J434 :    10.0;    T_J436 :    5.0;
    T_J44 :    5.0;    T_J441 :    5.0;    T_J442 :    5.0;    T_J444 :    5.0;    T_J447 :    5.0;
    T_J453 :    5.0;    T_J456 :    5.0;    T_J458 :    5.0;    T_J46 :    5.0;    T_J463 :    5.0;
    T_J465 :    5.0;    T_J468 :    5.0;    T_J47 :    25.0;    T_J471 :    5.0;    T_J473 :    5.0;
    T_J474 :    5.0;    T_J476 :    10.0;    T_J477 :    5.0;    T_J478 :    5.0;    T_J49 :    5.0;
    T_J50 :    5.0;    T_J58 :    10.0;    T_J6 :    5.0;    T_J61 :    5.0;    T_J62 :    5.0;
    T_J63 :    5.0;    T_J67 :    5.0;    T_J70 :    5.0;    T_J74 :    5.0;    T_J76 :    5.0;
    T_J77 :    5.0;    T_J80 :    5.0;    T_J84 :    5.0;    T_J87 :    25.0;    T_J90 :    5.0;
    T_J96 :    5.0;

Origin  T_J110
    T_J103 :    10.0;    T_J108 :    5.0;    T_J116 :    5.0;    T_J125 :    15.0;
    T_J127 :    5.0;    T_J131 :    5.0;    T_J132 :    5.0;    T_J133 :    5.0;    T_J134 :    5.0;
    T_J136 :    5.0;    T_J139 :    10.0;    T_J146 :    10.0;    T_J147 :    10.0;    T_J148 :    5.0;
    T_J15 :    10.0;    T_J153 :    10.0;    T_J157 :    5.0;    T_J160 :    5.0;    T_J161 :    5.0;
    T_J162 :    5.0;    T_J166 :    10.0;    T_J168 :    5.0;    T_J174 :    5.0;    T_J181 :    5.0;
    T_J182 :    5.0;    T_J183 :    5.0;    T_J188 :    5.0;    T_J189 :    5.0;    T_J195 :    5.0;
    T_J198 :    5.0;    T_J199 :    5.0;    T_J20 :    5.0;    T_J201 :    5.0;    T_J202 :    10.0;