<NUMBER OF ZONES> 9											
<NUMBER OF NODES> 9											
<FIRST THRU NODE> 1											
<NUMBER OF LINKS>22											
<END OF METADATA>											
											
											
~ 	Init node 	Term node 	Capacity 	Length 	Free Flow Time 	B	Power	Speed limit 	Toll 	Type	;
	1	2	25900.20064	6	6	0.15	4	0	0	1	;
	2	3	23403.47319	4	4	0.15	4	0	0	1	;
	1	4	25900.20064	6	6	0.15	4	0	0	1	;
	3	5	4958.180928	5	5	0.15	4	0	0	1	;
	4	5	23403.47319	4	4	0.15	4	0	0	1	;
	5	6	17110.52372	4	4	0.15	4	0	0	1	;
	4	7	23403.47319	4	4	0.15	4	0	0	1	;
	5	8	17110.52372	4	4	0.15	4	0	0	1	;
	6	9	17782.7941	2	2	0.15	4	0	0	1	;
	7	8	4908.82673	6	6	0.15	4	0	0	1	;
	8	9	17782.7941	2	2	0.15	4	0	0	1	;
	2	1	25900.20064	6	6	0.15	4	0	0	1	;
	3	2	23403.47319	4	4	0.15	4	0	0	1	;
	4	1	25900.20064	6	6	0.15	4	0	0	1	;
	5	3	4958.180928	5	5	0.15	4	0	0	1	;
	5	4	23403.47319	4	4	0.15	4	0	0	1	;
	6	5	17110.52372	4	4	0.15	4	0	0	1	;
	7	4	23403.47319	4	4	0.15	4	0	0	1	;
	8	5	17110.52372	4	4	0.15	4	0	0	1	;
	9	6	17782.7941	2	2	0.15	4	0	0	1	;
	8	7	4908.82673	6	6	0.15	4	0	0	1	;
	9	8	17782.7941	2	2	0.15	4	0	0	1	;
