<NUMBER OF ZONES> 80	
<TOTAL OD FLOW> 45130	
<END OF METADATA>	
	
	
Origin  1
    1 :    0;    2 :    0;    3 :    200;    4 :    100;    5 :    0;
    6 :    20;    7 :    0;    8 :    10;    10 :    100;    14 :    100;
    17 :    10;    18 :    200;    19 :    0;    21 :    10;    22 :    100;
    23 :    0;    29 :    15;    30 :    0;    31 :    100;    32 :    0;
    33 :    15;    35 :    0;    36 :    10;    37 :    0;    38 :    20;
    39 :    0;    46 :    0;    49 :    20;    50 :    0;    55 :    0;
    56 :    15;    57 :    0;    58 :    0;    59 :    15;    60 :    20;
    61 :    10;    62 :    0;    63 :    100;    64 :    0;    68 :    200;
    70 :    200;    72 :    15;    73 :    100;    74 :    200;    75 :    10;
    76 :    15;    78 :    0;    79 :    10;    80 :    20;

Origin  2
    1 :    5;    2 :    0;    3 :    10;    4 :    20;    5 :    20;
    6 :    0;    7 :    0;    8 :    0;    10 :    0;    14 :    0;
    17 :    5;    18 :    10;    19 :    0;    21 :    0;    22 :    0;
    23 :    20;    29 :    5;    30 :    10;    31 :    0;    32 :    10;
    33 :    10;    35 :    0;    36 :    0;    37 :    0;    38 :    5;
    39 :    0;    46 :    5;    49 :    0;    50 :    0;    55 :    10;
    56 :    5;    57 :    0;    58 :    0;    59 :    10;    60 :    0;
    61 :    0;    62 :    0;    63 :    0;    64 :    0;    68 :    10;
    70 :    0;    72 :    5;    73 :    20;    74 :    50;    75 :    0;
    76 :    0;    78 :    5;    79 :    0;    80 :    5;

Origin  3
    1 :    100;    2 :    10;    3 :    0;    4 :    100;    5 :    25;
    6 :    5;    7 :    10;    8 :    10;    10 :    0;    14 :    0;
    17 :    0;    18 :    50;    19 :    50;    21 :    0;    22 :    0;
    23 :    0;    29 :    0;    30 :    0;    31 :    50;    32 :    0;
    33 :    20;    35 :    0;    36 :    10;    37 :    5;    38 :    5;
    39 :    0;    46 :    10;    49 :    5;    50 :    5;    55 :    0;
    56 :    20;    57 :    0;    58 :    10;    59 :    20;    60 :    0;
    61 :    10;    62 :    100;    63 :    25;    64 :    0;    68 :    50;
    70 :    0;    72 :    0;    73 :    50;    74 :    0;    75 :    20;
    76 :    10;    78 :    5;    79 :    10;    80 :    10;

Origin  4
    1 :    100;    2 :    10;    3 :    0;    4 :    0;    5 :    25;
    6 :    10;    7 :    0;    8 :    20;    10 :    50;    14 :    100;
    17 :    10;    18 :    50;    19 :    50;    21 :    5;    22 :    100;
    23 :    50;    29 :    0;    30 :    10;    31 :    100;    32 :    20;
    33 :    10;    35 :    10;    36 :    0;    37 :    10;    38 :    5;
    39 :    10;    46 :    10;    49 :    0;    50 :    10;    55 :    0;
    56 :    10;    57 :    10;    58 :    0;    59 :    10;    60 :    10;
    61 :    10;    62 :    100;    63 :    25;    64 :    0;    68 :    0;
    70 :    100;    72 :    10;    73 :    50;    74 :    50;    75 :    10;
    76 :    10;    78 :    10;    79 :    5;    80 :    10;

Origin  5
    1 :    100;    2 :    0;    3 :    0;    4 :    0;    5 :    0;
    6 :    10;    7 :    10;    8 :    20;    10 :    0;    14 :    0;
    17 :    0;    18 :    150;    19 :    0;    21 :    10;    22 :    50;
    23 :    50;    29 :    20;    30 :    10;    31 :    100;    32 :    0;
    33 :    20;    35 :    5;    36 :    5;    37 :    0;    38 :    0;
    39 :    5;    46 :    0;    49 :    0;    50 :    0;    55 :    0;
    56 :    0;    57 :    20;    58 :    0;    59 :    0;    60 :    5;
    61 :    5;    62 :    25;    63 :    0;    64 :    100;    68 :    0;
    70 :    50;    72 :    10;    73 :    0;    74 :    100;    75 :    0;
    76 :    0;    78 :    10;    79 :    0;    80 :    0;

Origin  6
    1 :    5;    2 :    0;    3 :    0;    4 :    0;    5 :    20;
    6 :    0;    7 :    5;    8 :    5;    10 :    0;    14 :    0;
    17 :    0;    18 :    10;    19 :    20;    21 :    5;    22 :    0;
    23 :    0;    29 :    0;    30 :    5;    31 :    5;    32 :    10;
    33 :    0;    35 :    5;    36 :    5;    37 :    0;    38 :    5;
    39 :    5;    46 :    0;    49 :    5;    50 :    5;    55 :    5;
    56 :    10;    57 :    5;    58 :    10;    59 :    0;    60 :    0;
    61 :    0;    62 :    20;    63 :    30;    64 :    20;    68 :    5;
    70 :    10;    72 :    0;    73 :    20;    74 :    0;    75 :    5;
    76 :    0;    78 :    0;    79 :    0;    80 :    0;

Origin  7
    1 :    0;    2 :    0;    3 :    20;    4 :    20;    5 :    10;
    6 :    5;    7 :    0;    8 :    10;    10 :    5;    14 :    20;
    17 :    0;    18 :    0;    19 :    50;    21 :    0;    22 :    0;
    23 :    20;    29 :    0;    30 :    10;    31 :    5;    32 :    0;
    33 :    5;    35 :    0;    36 :    5;    37 :    0;    38 :    0;
    39 :    5;    46 :    0;    49 :    0;    50 :    0;    55 :    10;
    56 :    0;    57 :    0;    58 :    5;    59 :    0;    60 :    0;
    61 :    5;    62 :    20;    63 :    0;    64 :    0;    68 :    10;
    70 :    10;    72 :    0;    73 :    20;    74 :    50;    75 :    10;
    76 :    5;    78 :    0;    79 :    0;    80 :    5;

Origin  8
    1 :    0;    2 :    0;    3 :    10;    4 :    20;    5 :    10;
    6 :    0;    7 :    0;    8 :    0;    10 :    10;    14 :    10;
    17 :    0;    18 :    5;    19 :    0;    21 :    0;    22 :    20;
    23 :    0;    29 :    10;    30 :    0;    31 :    0;    32 :    10;
    33 :    10;    35 :    0;    36 :    0;    37 :    5;    38 :    0;
    39 :    5;    46 :    0;    49 :    0;    50 :    5;    55 :    0;
    56 :    10;    57 :    0;    58 :    0;    59 :    10;    60 :    0;
    61 :    5;    62 :    0;    63 :    10;    64 :    10;    68 :    10;
    70 :    5;    72 :    10;    73 :    20;    74 :    0;    75 :    0;
    76 :    0;    78 :    5;    79 :    0;    80 :    0;

Origin  9
    1 :    5;    2 :    0;    3 :    20;    4 :    20;    5 :    0;
    6 :    5;    7 :    0;    8 :    0;    10 :    0;    14 :    20;
    17 :    10;    18 :    5;    19 :    0;    21 :    5;    22 :    0;
    23 :    0;    29 :    0;    30 :    0;    31 :    0;    32 :    0;
    33 :    0;    35 :    0;    36 :    0;    37 :    5;    38 :    0;
    39 :    0;    46 :    0;    49 :    0;    50 :    0;    55 :    0;
    56 :    10;    57 :    10;    58 :    0;    59 :    10;    60 :    5;
    61 :    5;    62 :    20;    63 :    10;    64 :    20;    68 :    5;
    70 :    5;    72 :    10;    73 :    0;    74 :    0;    75 :    10;
    76 :    0;    78 :    0;    79 :    5;    80 :    0;

Origin  10
    1 :    200;    2 :    10;    3 :    200;    4 :    200;    5 :    0;
    6 :    0;    7 :    10;    8 :    15;    10 :    0;    14 :    0;
    17 :    10;    18 :    200;    19 :    200;    21 :    10;    22 :    0;
    23 :    0;    29 :    15;    30 :    0;    31 :    0;    32 :    10;
    33 :    0;    35 :    0;    36 :    0;    37 :    0;    38 :    10;
    39 :    0;    46 :    10;    49 :    20;    50 :    0;    55 :    0;
    56 :    15;    57 :    10;    58 :    15;    59 :    10;    60 :    20;
    61 :    0;    62 :    100;    63 :    100;    64 :    200;    68 :    100;
    70 :    200;    72 :    10;    73 :    200;    74 :    0;    75 :    0;
    76 :    15;    78 :    0;    79 :    0;    80 :    20;

Origin  11
    1 :    0;    2 :    5;    3 :    10;    4 :    10;    5 :    20;
    6 :    0;    7 :    0;    8 :    10;    10 :    10;    14 :    20;
    17 :    0;    18 :    0;    19 :    20;    21 :    5;    22 :    0;
    23 :    0;    29 :    0;    30 :    10;    31 :    0;    32 :    10;
    33 :    10;    35 :    5;    36 :    0;    37 :    5;    38 :    0;
    39 :    0;    46 :    5;    49 :    0;    50 :    0;    55 :    0;
    56 :    0;    57 :    10;    58 :    10;    59 :    0;    60 :    0;
    61 :    5;    62 :    10;    63 :    20;    64 :    0;    68 :    0;
    70 :    10;    72 :    0;    73 :    10;    74 :    0;    75 :    0;
    76 :    0;    78 :    0;    79 :    0;    80 :    5;

Origin  12
    1 :    0;    2 :    0;    3 :    0;    4 :    20;    5 :    10;
    6 :    0;    7 :    0;    8 :    0;    10 :    10;    14 :    10;
    17 :    0;    18 :    5;    19 :    10;    21 :    0;    22 :    10;
    23 :    10;    29 :    0;    30 :    0;    31 :    0;    32 :    0;
    33 :    0;    35 :    0;    36 :    5;    37 :    5;    38 :    5;
    39 :    0;    46 :    0;    49 :    0;    50 :    0;    55 :    0;
    56 :    0;    57 :    0;    58 :    0;    59 :    0;    60 :    5;
    61 :    0;    62 :    0;    63 :    0;    64 :    20;    68 :    10;
    70 :    0;    72 :    0;    73 :    20;    74 :    20;    75 :    0;
    76 :    0;    78 :    0;    79 :    5;    80 :    0;

Origin  13
    1 :    5;    2 :    5;    3 :    0;    4 :    20;    5 :    20;
    6 :    0;    7 :    0;    8 :    0;    10 :    5;    14 :    50;
    17 :    5;    18 :    0;    19 :    50;    21 :    0;    22 :    50;
    23 :    20;    29 :    5;    30 :    0;    31 :    5;    32 :    0;
    33 :    0;    35 :    0;    36 :    5;    37 :    0;    38 :    5;
    39 :    0;    46 :    0;    49 :    0;    50 :    0;    55 :    5;
    56 :    0;    57 :    10;    58 :    10;    59 :    0;    60 :    0;
    61 :    0;    62 :    20;    63 :    0;    64 :    30;    68 :    10;
    70 :    0;    72 :    0;    73 :    20;    74 :    0;    75 :    10;
    76 :    5;    78 :    5;    79 :    5;    80 :    5;

Origin  14
    1 :    100;    2 :    5;    3 :    0;    4 :    0;    5 :    0;
    6 :    0;    7 :    0;    8 :    0;    10 :    0;    14 :    0;
    17 :    0;    18 :    0;    19 :    100;    21 :    10;    22 :    0;
    23 :    150;    29 :    0;    30 :    0;    31 :    0;    32 :    5;
    33 :    5;    35 :    0;    36 :    0;    37 :    0;    38 :    5;
    39 :    10;    46 :    0;    49 :    10;    50 :    5;    55 :    5;
    56 :    10;    57 :    5;    58 :    0;    59 :    0;    60 :    0;
    61 :    0;    62 :    50;    63 :    100;    64 :    50;    68 :    100;
    70 :    100;    72 :    0;    73 :    0;    74 :    100;    75 :    0;
    76 :    5;    78 :    5;    79 :    0;    80 :    0;

Origin  15
    1 :    0;    2 :    0;    3 :    10;    4 :    0;    5 :    10;
    6 :    5;    7 :    0;    8 :    0;    10 :    0;    14 :    20;
    17 :    10;    18 :    10;    19 :    20;    21 :    5;    22 :    0;
    23 :    0;    29 :    0;    30 :    10;    31 :    0;    32 :    0;
    33 :    0;    35 :    5;    36 :    0;    37 :    0;    38 :    0;
    39 :    0;    46 :    5;    49 :    0;    50 :    0;    55 :    0;
    56 :    0;    57 :    10;    58 :    10;    59 :    0;    60 :    0;
    61 :    0;    62 :    10;    63 :    0;    64 :    0;    68 :    5;
    70 :    0;    72 :    0;    73 :    0;    74 :    20;    75 :    0;
    76 :    10;    78 :    0;    79 :    0;    80 :    0;

Origin  16
    1 :    0;    2 :    0;    3 :    0;    4 :    10;    5 :    10;
    6 :    5;    7 :    0;    8 :    0;    10 :    5;    14 :    20;
    17 :    10;    18 :    5;    19 :    20;    21 :    5;    22 :    20;
    23 :    10;    29 :    0;    30 :    0;    31 :    10;    32 :    10;
    33 :    10;    35 :    5;    36 :    0;    37 :    0;    38 :    0;
    39 :    0;    46 :    5;    49 :    5;    50 :    0;    55 :    0;
    56 :    10;    57 :    0;    58 :    0;    59 :    0;    60 :    0;
    61 :    5;    62 :    0;    63 :    0;    64 :    20;    68 :    0;
    70 :    10;    72 :    10;    73 :    0;    74 :    0;    75 :    0;
    76 :    0;    78 :    5;    79 :    0;    80 :    0;

Origin  17
    1 :    5;    2 :    0;    3 :    20;    4 :    20;    5 :    20;
    6 :    0;    7 :    0;    8 :    0;    10 :    5;    14 :    20;
    17 :    0;    18 :    0;    19 :    10;    21 :    0;    22 :    0;
    23 :    20;    29 :    0;    30 :    0;    31 :    5;    32 :    0;
    33 :    0;    35 :    0;    36 :    0;    37 :    0;    38 :    5;
    39 :    0;    46 :    0;    49 :    0;    50 :    0;    55 :    0;
    56 :    0;    57 :    0;    58 :    0;    59 :    0;    60 :    0;
    61 :    5;    62 :    20;    63 :    0;    64 :    10;    68 :    10;
    70 :    5;    72 :    0;    73 :    20;    74 :    0;    75 :    0;
    76 :    0;    78 :    5;    79 :    0;    80 :    0;

Origin  18
    1 :    200;    2 :    0;    3 :    100;    4 :    0;    5 :    200;
    6 :    0;    7 :    20;    8 :    15;    10 :    200;    14 :    100;
    17 :    10;    18 :    0;    19 :    200;    21 :    0;    22 :    0;
    23 :    100;    29 :    0;    30 :    15;    31 :    200;    32 :    0;
    33 :    15;    35 :    0;    36 :    20;    37 :    20;    38 :    10;
    39 :    0;    46 :    20;    49 :    0;    50 :    20;    55 :    15;
    56 :    15;    57 :    0;    58 :    0;    59 :    10;    60 :    0;
    61 :    0;    62 :    200;    63 :    0;    64 :    0;    68 :    200;
    70 :    0;    72 :    15;    73 :    0;    74 :    100;    75 :    0;
    76 :    0;    78 :    0;    79 :    20;    80 :    0;

Origin  19
    1 :    0;    2 :    0;    3 :    100;    4 :    50;    5 :    50;
    6 :    5;    7 :    0;    8 :    0;    10 :    150;    14 :    100;
    17 :    0;    18 :    100;    19 :    0;    21 :    0;    22 :    150;
    23 :    100;    29 :    10;    30 :    5;    31 :    0;    32 :    10;
    33 :    5;    35 :    5;    36 :    0;    37 :    5;    38 :    10;
    39 :    10;    46 :    0;    49 :    5;    50 :    10;    55 :    10;
    56 :    0;    57 :    0;    58 :    10;    59 :    0;    60 :    5;
    61 :    0;    62 :    100;    63 :    50;    64 :    100;    68 :    0;
    70 :    100;    72 :    10;    73 :    0;    74 :    0;    75 :    0;
    76 :    0;    78 :    0;    79 :    10;    80 :    0;

Origin  20
    1 :    5;    2 :    0;    3 :    20;    4 :    20;    5 :    0;
    6 :    5;    7 :    5;    8 :    5;    10 :    10;    14 :    0;
    17 :    0;    18 :    0;    19 :    20;    21 :    5;    22 :    0;
    23 :    20;    29 :    0;    30 :    0;    31 :    0;    32 :    10;
    33 :    5;    35 :    0;    36 :    0;    37 :    5;    38 :    0;
    39 :    5;    46 :    5;    49 :    5;    50 :    0;    55 :    10;
    56 :    0;    57 :    10;    58 :    5;    59 :    5;    60 :    5;
    61 :    0;    62 :    0;    63 :    0;    64 :    20;    68 :    0;
    70 :    10;    72 :    10;    73 :    50;    74 :    50;    75 :    10;
    76 :    10;    78 :    5;    79 :    5;    80 :    5;

Origin  21
    1 :    0;    2 :    5;    3 :    0;    4 :    20;    5 :    20;
    6 :    0;    7 :    0;    8 :    5;    10 :    0;    14 :    20;
    17 :    5;    18 :    5;    19 :    20;    21 :    0;    22 :    50;
    23 :    20;    29 :    10;    30 :    0;    31 :    5;    32 :    0;
    33 :    5;    35 :    0;    36 :    0;    37 :    0;    38 :    5;
    39 :    5;    46 :    5;    49 :    5;    50 :    0;    55 :    10;
    56 :    5;    57 :    10;    58 :    0;    59 :    10;    60 :    5;
    61 :    5;    62 :    0;    63 :    0;    64 :    0;    68 :    0;
    70 :    5;    72 :    0;    73 :    0;    74 :    20;    75 :    0;
    76 :    10;    78 :    5;    79 :    0;    80 :    0;

Origin  22
    1 :    0;    2 :    5;    3 :    100;    4 :    50;    5 :    0;
    6 :    0;    7 :    0;    8 :    5;    10 :    100;    14 :    100;
    17 :    5;    18 :    0;    19 :    100;    21 :    10;    22 :    0;
    23 :    150;    29 :    0;    30 :    5;    31 :    150;    32 :    0;
    33 :    0;    35 :    5;    36 :    5;    37 :    10;    38 :    10;
    39 :    0;    46 :    0;    49 :    0;    50 :    0;    55 :    10;
    56 :    0;    57 :    0;    58 :    0;    59 :    0;    60 :    0;
    61 :    0;    62 :    100;    63 :    0;    64 :    100;    68 :    0;
    70 :    0;    72 :    5;    73 :    100;    74 :    100;    75 :    5;
    76 :    5;    78 :    0;    79 :    0;    80 :    5;

Origin  23
    1 :    100;    2 :    5;    3 :    0;    4 :    0;    5 :    50;
    6 :    0;    7 :    10;    8 :    0;    10 :    0;    14 :    100;
    17 :    0;    18 :    150;    19 :    0;    21 :    5;    22 :    150;
    23 :    0;    29 :    10;    30 :    0;    31 :    150;    32 :    5;
    33 :    5;    35 :    5;    36 :    10;    37 :    0;    38 :    0;
    39 :    0;    46 :    0;    49 :    0;    50 :    5;    55 :    0;
    56 :    10;    57 :    10;    58 :    10;    59 :    5;    60 :    10;
    61 :    0;    62 :    50;    63 :    50;    64 :    50;    68 :    100;
    70 :    0;    72 :    0;    73 :    100;    74 :    150;    75 :    0;
    76 :    5;    78 :    5;    79 :    5;    80 :    5;

Origin  24
    1 :    5;    2 :    0;    3 :    0;    4 :    20;    5 :    20;
    6 :    0;    7 :    0;    8 :    10;    10 :    10;    14 :    50;
    17 :    0;    18 :    0;    19 :    20;    21 :    5;    22 :    20;
    23 :    20;    29 :    5;    30 :    10;    31 :    0;    32 :    5;
    33 :    0;    35 :    0;    36 :    5;    37 :    0;    38 :    5;
    39 :    5;    46 :    5;    49 :    5;    50 :    0;    55 :    5;
    56 :    5;    57 :    0;    58 :    0;    59 :    0;    60 :    0;
    61 :    0;    62 :    30;    63 :    0;    64 :    0;    68 :    0;
    70 :    5;    72 :    0;    73 :    50;    74 :    50;    75 :    5;
    76 :    5;    78 :    5;    79 :    0;    80 :    0;

Origin  25
    1 :    10;    2 :    0;    3 :    10;    4 :    20;    5 :    20;
    6 :    5;    7 :    0;    8 :    10;    10 :    10;    14 :    50;
    17 :    5;    18 :    10;    19 :    0;    21 :    0;    22 :    0;
    23 :    20;    29 :    10;    30 :    0;    31 :    5;    32 :    5;
    33 :    10;    35 :    0;    36 :    5;    37 :    0;    38 :    0;
    39 :    5;    46 :    0;    49 :    5;    50 :    5;    55 :    5;
    56 :    10;    57 :    0;    58 :    10;    59 :    10;    60 :    0;
    61 :    0;    62 :    0;    63 :    20;    64 :    30;    68 :    5;
    70 :    10;    72 :    10;    73 :    50;    74 :    50;    75 :    10;
    76 :    0;    78 :    0;    79 :    0;    80 :    0;

Origin  26
    1 :    0;    2 :    0;    3 :    10;    4 :    0;    5 :    0;
    6 :    0;    7 :    5;    8 :    0;    10 :    10;    14 :    20;
    17 :    0;    18 :    5;    19 :    0;    21 :    5;    22 :    50;
    23 :    0;    29 :    5;    30 :    0;    31 :    10;    32 :    10;
    33 :    5;    35 :    0;    36 :    0;    37 :    0;    38 :    0;
    39 :    0;    46 :    5;    49 :    5;    50 :    0;    55 :    10;
    56 :    10;    57 :    0;    58 :    5;    59 :    10;    60 :    0;
    61 :    0;    62 :    0;    63 :    0;    64 :    30;    68 :    5;
    70 :    5;    72 :    10;    73 :    0;    74 :    50;    75 :    5;
    76 :    10;    78 :    5;    79 :    5;    80 :    0;

Origin  27
    1 :    0;    2 :    0;    3 :    0;    4 :    10;    5 :    20;
    6 :    0;    7 :    0;    8 :    5;    10 :    5;    14 :    0;
    17 :    5;    18 :    0;    19 :    50;    21 :    5;    22 :    20;
    23 :    0;    29 :    10;    30 :    10;    31 :    5;    32 :    5;
    33 :    0;    35 :    0;    36 :    5;    37 :    0;    38 :    5;
    39 :    0;    46 :    5;    49 :    0;    50 :    0;    55 :    10;
    56 :    0;    57 :    10;    58 :    0;    59 :    5;    60 :    5;
    61 :    0;    62 :    20;    63 :    20;    64 :    0;    68 :    5;
    70 :    0;    72 :    10;    73 :    20;    74 :    50;    75 :    10;
    76 :    10;    78 :    5;    79 :    0;    80 :    0;

Origin  28
    1 :    5;    2 :    0;    3 :    10;    4 :    20;    5 :    20;
    6 :    5;    7 :    5;    8 :    0;    10 :    5;    14 :    0;
    17 :    0;    18 :    10;    19 :    0;    21 :    5;    22 :    20;
    23 :    10;    29 :    0;    30 :    10;    31 :    5;    32 :    0;
    33 :    0;    35 :    0;    36 :    0;    37 :    0;    38 :    5;
    39 :    0;    46 :    0;    49 :    0;    50 :    0;    55 :    0;
    56 :    0;    57 :    10;    58 :    10;    59 :    0;    60 :    0;
    61 :    0;    62 :    20;    63 :    10;    64 :    10;    68 :    10;
    70 :    0;    72 :    10;    73 :    20;    74 :    10;    75 :    0;
    76 :    0;    78 :    0;    79 :    0;    80 :    0;

Origin  29
    1 :    10;    2 :    5;    3 :    10;    4 :    0;    5 :    10;
    6 :    5;    7 :    0;    8 :    0;    10 :    5;    14 :    10;
    17 :    10;    18 :    0;    19 :    10;    21 :    5;    22 :    10;
    23 :    0;    29 :    0;    30 :    0;    31 :    5;    32 :    0;
    33 :    0;    35 :    0;    36 :    0;    37 :    0;    38 :    0;
    39 :    5;    46 :    0;    49 :    5;    50 :    0;    55 :    10;
    56 :    10;    57 :    0;    58 :    0;    59 :    10;    60 :    0;
    61 :    0;    62 :    0;    63 :    10;    64 :    0;    68 :    10;
    70 :    5;    72 :    10;    73 :    20;    74 :    0;    75 :    0;
    76 :    10;    78 :    0;    79 :    0;    80 :    5;

Origin  30
    1 :    10;    2 :    5;    3 :    10;    4 :    10;    5 :    0;
    6 :    0;    7 :    0;    8 :    10;    10 :    10;    14 :    0;
    17 :    0;    18 :    5;    19 :    10;    21 :    5;    22 :    10;
    23 :    0;    29 :    0;    30 :    0;    31 :    10;    32 :    0;
    33 :    10;    35 :    5;    36 :    5;    37 :    5;    38 :    0;
    39 :    5;    46 :    0;    49 :    0;    50 :    0;    55 :    0;
    56 :    0;    57 :    10;    58 :    0;    59 :    0;    60 :    0;
    61 :    0;    62 :    20;    63 :    0;    64 :    0;    68 :    5;
    70 :    10;    72 :    10;    73 :    20;    74 :    20;    75 :    0;
    76 :    10;    78 :    0;    79 :    0;    80 :    0;

Origin  31
    1 :    100;    2 :    10;    3 :    0;    4 :    100;    5 :    0;
    6 :    20;    7 :    20;    8 :    0;    10 :    200;    14 :    100;
    17 :    0;    18 :    100;    19 :    0;    21 :    0;    22 :    200;
    23 :    100;    29 :    15;    30 :    10;    31 :    0;    32 :    0;
    33 :    0;    35 :    10;    36 :    20;    37 :    0;    38 :    20;
    39 :    0;    46 :    20;    49 :    0;    50 :    10;    55 :    0;
    56 :    15;    57 :    15;    58 :    15;    59 :    15;    60 :    0;
    61 :    0;    62 :    0;    63 :    100;    64 :    0;    68 :    100;
    70 :    100;    72 :    10;    73 :    100;    74 :    100;    75 :    10;
    76 :    15;    78 :    0;    79 :    0;    80 :    0;

Origin  32
    1 :    10;    2 :    0;    3 :    10;    4 :    0;    5 :    20;
    6 :    0;    7 :    0;    8 :    0;    10 :    0;    14 :    10;
    17 :    0;    18 :    0;    19 :    10;    21 :    0;    22 :    0;
    23 :    10;    29 :    0;    30 :    0;    31 :    10;    32 :    0;
    33 :    0;    35 :    0;    36 :    0;    37 :    5;    38 :    5;
    39 :    5;    46 :    0;    49 :    0;    50 :    0;    55 :    10;
    56 :    0;    57 :    0;    58 :    0;    59 :    0;    60 :    0;
    61 :    0;    62 :    20;    63 :    10;    64 :    10;    68 :    10;
    70 :    0;    72 :    0;    73 :    10;    74 :    0;    75 :    0;
    76 :    0;    78 :    5;    79 :    5;    80 :    0;

Origin  33
    1 :    0;    2 :    5;    3 :    0;    4 :    0;    5 :    0;
    6 :    0;    7 :    0;    8 :    10;    10 :    0;    14 :    0;
    17 :    0;    18 :    10;    19 :    20;    21 :    0;    22 :    10;
    23 :    0;    29 :    10;    30 :    0;    31 :    0;    32 :    0;
    33 :    0;    35 :    5;    36 :    0;    37 :    5;    38 :    0;
    39 :    0;    46 :    0;    49 :    5;    50 :    0;    55 :    0;
    56 :    0;    57 :    0;    58 :    0;    59 :    0;    60 :    0;
    61 :    5;    62 :    20;    63 :    10;    64 :    20;    68 :    10;
    70 :    0;    72 :    10;    73 :    20;    74 :    10;    75 :    0;
    76 :    0;    78 :    0;    79 :    0;    80 :    0;

Origin  34
    1 :    10;    2 :    0;    3 :    0;    4 :    0;    5 :    10;
    6 :    0;    7 :    0;    8 :    10;    10 :    0;    14 :    20;
    17 :    0;    18 :    5;    19 :    20;    21 :    0;    22 :    0;
    23 :    20;    29 :    0;    30 :    5;    31 :    0;    32 :    10;
    33 :    5;    35 :    5;    36 :    5;    37 :    0;    38 :    0;
    39 :    0;    46 :    5;    49 :    0;    50 :    0;    55 :    5;
    56 :    5;    57 :    0;    58 :    10;    59 :    10;    60 :    0;
    61 :    5;    62 :    30;    63 :    20;    64 :    20;    68 :    0;
    70 :    0;    72 :    5;    73 :    20;    74 :    20;    75 :    0;
    76 :    0;    78 :    5;    79 :    0;    80 :    5;

Origin  35
    1 :    5;    2 :    0;    3 :    10;    4 :    0;    5 :    20;
    6 :    5;    7 :    0;    8 :    10;    10 :    5;    14 :    20;
    17 :    10;    18 :    5;    19 :    0;    21 :    0;    22 :    50;
    23 :    20;    29 :    10;    30 :    10;    31 :    5;    32 :    5;
    33 :    10;    35 :    0;    36 :    0;    37 :    0;    38 :    5;
    39 :    0;    46 :    0;    49 :    0;    50 :    0;    55 :    0;
    56 :    10;    57 :    5;    58 :    5;    59 :    5;    60 :    0;
    61 :    0;    62 :    20;    63 :    0;    64 :    20;    68 :    10;
    70 :    0;    72 :    10;    73 :    0;    74 :    50;    75 :    10;
    76 :    10;    78 :    0;    79 :    0;    80 :    0;

Origin  36
    1 :    0;    2 :    5;    3 :    20;    4 :    10;    5 :    0;
    6 :    0;    7 :    0;    8 :    0;    10 :    5;    14 :    0;
    17 :    5;    18 :    5;    19 :    0;    21 :    5;    22 :    0;
    23 :    20;    29 :    5;    30 :    0;    31 :    0;    32 :    10;
    33 :    5;    35 :    5;    36 :    0;    37 :    0;    38 :    0;
    39 :    5;    46 :    0;    49 :    0;    50 :    5;    55 :    10;
    56 :    10;    57 :    0;    58 :    0;    59 :    10;    60 :    0;
    61 :    0;    62 :    30;    63 :    30;    64 :    30;    68 :    10;
    70 :    5;    72 :    0;    73 :    0;    74 :    50;    75 :    0;
    76 :    0;    78 :    5;    79 :    0;    80 :    5;

Origin  37
    1 :    5;    2 :    0;    3 :    10;    4 :    10;    5 :    10;
    6 :    5;    7 :    5;    8 :    5;    10 :    0;    14 :    0;
    17 :    5;    18 :    0;    19 :    50;    21 :    5;    22 :    20;
    23 :    20;    29 :    0;    30 :    0;    31 :    0;    32 :    5;
    33 :    10;    35 :    0;    36 :    0;    37 :    0;    38 :    0;
    39 :    0;    46 :    5;    49 :    0;    50 :    0;    55 :    0;
    56 :    0;    57 :    5;    58 :    10;    59 :    0;    60 :    5;
    61 :    5;    62 :    30;    63 :    0;    64 :    20;    68 :    5;
    70 :    5;    72 :    10;    73 :    50;    74 :    50;    75 :    10;
    76 :    5;    78 :    0;    79 :    0;    80 :    5;

Origin  38
    1 :    10;    2 :    0;    3 :    20;    4 :    20;    5 :    20;
    6 :    0;    7 :    5;    8 :    0;    10 :    0;    14 :    0;
    17 :    0;    18 :    10;    19 :    0;    21 :    0;    22 :    50;
    23 :    50;    29 :    0;    30 :    5;    31 :    0;    32 :    5;
    33 :    0;    35 :    5;    36 :    5;    37 :    0;    38 :    0;
    39 :    0;    46 :    5;    49 :    5;    50 :    5;    55 :    10;
    56 :    0;    57 :    10;    58 :    0;    59 :    5;    60 :    5;
    61 :    0;    62 :    30;    63 :    0;    64 :    30;    68 :    10;
    70 :    10;    72 :    5;    73 :    50;    74 :    50;    75 :    0;
    76 :    0;    78 :    0;    79 :    0;    80 :    0;

Origin  39
    1 :    5;    2 :    0;    3 :    10;    4 :    20;    5 :    0;
    6 :    5;    7 :    5;    8 :    10;    10 :    10;    14 :    20;
    17 :    10;    18 :    10;    19 :    0;    21 :    0;    22 :    50;
    23 :    50;    29 :    10;    30 :    5;    31 :    5;    32 :    10;
    33 :    0;    35 :    0;    36 :    5;    37 :    0;    38 :    0;
    39 :    0;    46 :    5;    49 :    5;    50 :    0;    55 :    10;
    56 :    5;    57 :    5;    58 :    0;    59 :    5;    60 :    0;
    61 :    0;    62 :    30;    63 :    30;    64 :    20;    68 :    0;
    70 :    10;    72 :    10;    73 :    50;    74 :    0;    75 :    5;
    76 :    0;    78 :    0;    79 :    0;    80 :    5;

Origin  40
    1 :    5;    2 :    0;    3 :    20;    4 :    0;    5 :    0;
    6 :    0;    7 :    0;    8 :    5;    10 :    0;    14 :    20;
    17 :    5;    18 :    10;    19 :    20;    21 :    5;    22 :    0;
    23 :    0;    29 :    0;    30 :    0;    31 :    10;    32 :    0;
    33 :    10;    35 :    5;    36 :    0;    37 :    5;    38 :    0;
    39 :    0;    46 :    5;    49 :    0;    50 :    0;    55 :    0;
    56 :    5;    57 :    0;    58 :    10;    59 :    10;    60 :    5;
    61 :    0;    62 :    0;    63 :    20;    64 :    20;    68 :    10;
    70 :    0;    72 :    5;    73 :    20;    74 :    20;    75 :    5;
    76 :    10;    78 :    0;    79 :    0;    80 :    0;

Origin  41
    1 :    10;    2 :    0;    3 :    0;    4 :    0;    5 :    0;
    6 :    0;    7 :    0;    8 :    0;    10 :    5;    14 :    0;
    17 :    10;    18 :    10;    19 :    20;    21 :    5;    22 :    20;
    23 :    20;    29 :    5;    30 :    5;    31 :    0;    32 :    10;
    33 :    0;    35 :    0;    36 :    5;    37 :    5;    38 :    5;
    39 :    0;    46 :    0;    49 :    0;    50 :    0;    55 :    10;
    56 :    5;    57 :    0;    58 :    10;    59 :    5;    60 :    0;
    61 :    5;    62 :    30;    63 :    20;    64 :    30;    68 :    5;
    70 :    0;    72 :    10;    73 :    0;    74 :    50;    75 :    5;
    76 :    10;    78 :    0;    79 :    0;    80 :    5;

Origin  42
    1 :    5;    2 :    0;    3 :    20;    4 :    0;    5 :    0;
    6 :    0;    7 :    0;    8 :    0;    10 :    5;    14 :    0;
    17 :    10;    18 :    0;    19 :    0;    21 :    0;    22 :    50;
    23 :    20;    29 :    10;    30 :    5;    31 :    5;    32 :    5;
    33 :    5;    35 :    5;    36 :    0;    37 :    5;    38 :    0;
    39 :    0;    46 :    5;    49 :    5;    50 :    0;    55 :    0;