<NUMBER OF ZONES> 80											
<NUMBER OF NODES> 80											
<FIRST THRU NODE> T_J1											
<NUMBER OF LINKS>240											
<END OF METADATA>											
											
											
~ 	Init node 	Term node 	Capacity 	Length 	Free Flow Time 	B	Power	Speed limit 	Toll 	Type	;
T_J1	T_J2	2700	2.006	2.91	0.15	4	0	0	1	;
T_J2	T_J3	2700	0.382	2.46	0.15	4	0	0	1	;
T_J3	T_J4	2700	0.392	2.47	0.15	4	0	0	1	;
T_J4	T_J5	2700	0.425	2.51	0.15	4	0	0	1	;
T_J5	T_J6	2700	0.375	0.95	0.15	4	0	0	1	;
T_J6	T_J7	2700	0.828	1.49	0.15	4	0	0	1	;
T_J7	T_J8	2700	0.405	0.99	0.15	4	0	0	1	;
T_J8	T_J71	2700	0.387	0.96	0.15	4	0	0	1	;
T_J71	T_J9	2700	0.79	1.45	0.15	4	0	0	1	;
T_J9	T_J70	2700	0.785	0.94	0.15	4	0	0	1	;
T_J10	T_J11	2700	1.182	1.92	0.15	4	0	0	1	;
T_J11	T_J12	2700	2.018	2.92	0.15	4	0	0	1	;
T_J12	T_J13	2700	0.385	0.96	0.15	4	0	0	1	;
T_J13	T_J14	2700	0.39	2.47	0.15	4	0	0	1	;
T_J14	T_J15	2700	0.428	1.01	0.15	4	0	0	1	;
T_J15	T_J16	2700	0.392	0.97	0.15	4	0	0	1	;
T_J16	T_J17	2700	1.64	2.47	0.15	4	0	0	1	;
T_J17	T_J18	2700	1.57	1.88	0.15	4	0	0	1	;
T_J19	T_J20	1500	0.409	1.48	0.15	4	0	0	1	;
T_J21	T_J22	1500	0.393	2.94	0.15	4	0	0	1	;
T_J22	T_J23	1500	0.423	3.02	0.15	4	0	0	1	;
T_J23	T_J24	1500	0.377	1.4	0.15	4	0	0	1	;
T_J24	T_J25	1500	0.262	1.13	0.15	4	0	0	1	;
T_J25	T_J26	1500	0.272	1.15	0.15	4	0	0	1	;
T_J26	T_J27	1500	0.297	1.21	0.15	4	0	0	1	;
T_J27	T_J28	2700	0.8	1.46	0.15	4	0	0	1	;
T_J28	T_J29	2700	1.585	2.4	0.15	4	0	0	1	;
T_J64	T_J65	1500	0.377	1.4	0.15	4	0	0	1	;
T_J64	T_J63	1500	0.408	2.98	0.15	4	0	0	1	;
T_J63	T_J62	1500	0.413	2.99	0.15	4	0	0	1	;
T_J62	T_J61	1500	0.37	1.39	0.15	4	0	0	1	;
T_J61	T_J60	1500	0.843	2.52	0.15	4	0	0	1	;
T_J40	T_J39	1500	0.838	2.51	0.15	4	0	0	1	;
T_J39	T_J38	1500	0.382	1.42	0.15	4	0	0	1	;
T_J38	T_J37	1500	0.392	1.44	0.15	4	0	0	1	;
T_J37	T_J36	1500	0.418	1.5	0.15	4	0	0	1	;
T_J36	T_J35	1500	0.38	1.41	0.15	4	0	0	1	;
T_J35	T_J34	1500	0.818	2.46	0.15	4	0	0	1	;
T_J53	T_J46	1500	0.835	2.5	0.15	4	0	0	1	;
T_J46	T_J45	1500	0.403	1.47	0.15	4	0	0	1	;
T_J45	T_J44	1500	0.383	1.42	0.15	4	0	0	1	;
T_J44	T_J43	1500	0.433	1.54	0.15	4	0	0	1	;
T_J43	T_J42	1500	0.352	1.34	0.15	4	0	0	1	;
T_J42	T_J41	1500	0.81	2.44	0.15	4	0	0	1	;
T_J54	T_J52	1500	0.815	2.46	0.15	4	0	0	1	;
T_J52	T_J51	1500	0.362	1.37	0.15	4	0	0	1	;
T_J51	T_J50	1500	0.408	1.48	0.15	4	0	0	1	;
T_J50	T_J49	1500	0.418	1.5	0.15	4	0	0	1	;
T_J49	T_J48	1500	0.367	1.38	0.15	4	0	0	1	;
T_J48	T_J47	1500	0.815	2.46	0.15	4	0	0	1	;
T_J67	T_J66	1500	0.818	2.46	0.15	4	0	0	1	;
T_J33	T_J32	2700	1.248	2.0	0.15	4	0	0	1	;
T_J32	T_J31	2700	2.013	2.42	0.15	4	0	0	1	;
T_J68	T_J59	2700	2.023	2.93	0.15	4	0	0	1	;
T_J59	T_J58	2700	0.352	0.92	0.15	4	0	0	1	;
T_J58	T_J57	2700	0.423	1.01	0.15	4	0	0	1	;
T_J57	T_J56	2700	0.433	1.02	0.15	4	0	0	1	;
T_J56	T_J55	2700	0.352	0.92	0.15	4	0	0	1	;
T_J68	T_J1	2700	3.633	4.36	0.15	4	0	0	1	;
T_J1	T_J69	2700	1.791	2.65	0.15	4	0	0	1	;
T_J69	T_J11	2700	2.224	3.17	0.15	4	0	0	1	;
T_J54	T_J53	1500	0.385	1.42	0.15	4	0	0	1	;
T_J53	T_J40	1500	0.415	1.5	0.15	4	0	0	1	;
T_J59	T_J52	2400	2.415	5.33	0.15	4	0	0	1	;
T_J52	T_J46	2400	0.393	1.29	0.15	4	0	0	1	;
T_J46	T_J39	2400	0.418	1.34	0.15	4	0	0	1	;
T_J39	T_J2	2400	0.403	1.31	0.15	4	0	0	1	;
T_J2	T_J65	2400	1.198	2.9	0.15	4	0	0	1	;
T_J65	T_J20	2400	1.278	3.06	0.15	4	0	0	1	;
T_J20	T_J12	2400	1.535	3.57	0.15	4	0	0	1	;
T_J12	T_J76	2400	0.428	1.36	0.15	4	0	0	1	;
T_J58	T_J51	1500	2.405	6.27	0.15	4	0	0	1	;
T_J51	T_J45	1500	0.403	1.47	0.15	4	0	0	1	;
T_J45	T_J38	1500	0.423	1.52	0.15	4	0	0	1	;
T_J38	T_J3	1500	0.392	2.94	0.15	4	0	0	1	;
T_J3	T_J64	1500	1.228	4.95	0.15	4	0	0	1	;
T_J64	T_J21	1500	0.775	2.36	0.15	4	0	0	1	;
T_J21	T_J13	1500	2.013	5.33	0.15	4	0	0	1	;
T_J13	T_J75	1500	0.443	1.56	0.15	4	0	0	1	;
T_J57	T_J50	2400	2.425	5.35	0.15	4	0	0	1	;
T_J50	T_J44	2400	0.403	1.31	0.15	4	0	0	1	;
T_J44	T_J37	2400	0.423	1.35	0.15	4	0	0	1	;
T_J37	T_J4	2400	0.392	2.78	0.15	4	0	0	1	;
T_J4	T_J63	2400	1.208	4.42	0.15	4	0	0	1	;
T_J63	T_J22	2400	0.815	3.63	0.15	4	0	0	1	;
T_J22	T_J14	2400	2.013	6.03	0.15	4	0	0	1	;
T_J14	T_J74	2400	0.413	2.83	0.15	4	0	0	1	;
T_J56	T_J49	1500	2.405	6.27	0.15	4	0	0	1	;
T_J49	T_J43	1500	0.393	1.44	0.15	4	0	0	1	;
T_J43	T_J36	1500	0.403	1.47	0.15	4	0	0	1	;
T_J36	T_J5	1500	0.393	2.94	0.15	4	0	0	1	;
T_J5	T_J62	1500	1.208	4.9	0.15	4	0	0	1	;
T_J62	T_J23	1500	0.815	3.96	0.15	4	0	0	1	;
T_J23	T_J15	1500	2.003	5.31	0.15	4	0	0	1	;
T_J15	T_J73	1500	0.423	3.02	0.15	4	0	0	1	;
T_J55	T_J33	2700	0.383	0.96	0.15	4	0	0	1	;
T_J33	T_J67	2400	1.157	2.81	0.15	4	0	0	1	;
T_J67	T_J48	2400	0.825	2.15	0.15	4	0	0	1	;
T_J48	T_J42	2400	0.415	1.33	0.15	4	0	0	1	;
T_J42	T_J35	2400	0.395	1.29	0.15	4	0	0	1	;
T_J35	T_J6	2400	0.413	1.33	0.15	4	0	0	1	;
T_J6	T_J61	2400	1.198	2.9	0.15	4	0	0	1	;
T_J61	T_J24	2400	0.79	2.08	0.15	4	0	0	1	;
T_J24	T_J77	2400	1.602	3.7	0.15	4	0	0	1	;
T_J16	T_J72	2400	0.388	1.28	0.15	4	0	0	1	;
T_J66	T_J47	1500	0.84	2.52	0.15	4	0	0	1	;
T_J47	T_J41	1500	0.418	1.5	0.15	4	0	0	1	;
T_J41	T_J34	1500	0.398	1.46	0.15	4	0	0	1	;
T_J7	T_J60	2700	1.198	1.94	0.15	4	0	0	1	;
T_J60	T_J27	2700	0.8	1.46	0.15	4	0	0	1	;
T_J32	T_J8	2700	3.23	4.38	0.15	4	0	0	1	;
T_J30	T_J28	2400	0.664	1.83	0.15	4	0	0	1	;
T_J28	T_J17	2700	2.013	2.92	0.15	4	0	0	1	;
T_J77	T_J16	2400	0.413	1.33	0.15	4	0	0	1	;
T_J27	T_J80	1500	1.615	4.38	0.15	4	0	0	1	;
T_J26	T_J79	1500	1.61	4.36	0.15	4	0	0	1	;
T_J25	T_J78	1500	1.61	4.36	0.15	4	0	0	1	;
T_J77	T_J78	1500	0.267	1.14	0.15	4	0	0	1	;
T_J78	T_J79	1500	0.282	1.18	0.15	4	0	0	1	;
T_J79	T_J80	1500	0.287	1.19	0.15	4	0	0	1	;
T_J2	T_J1	2700	2.006	2.91	0.15	4	0	0	1	;
T_J3	T_J2	2700	0.382	2.46	0.15	4	0	0	1	;
T_J4	T_J3	2700	0.392	2.47	0.15	4	0	0	1	;
T_J5	T_J4	2700	0.425	2.51	0.15	4	0	0	1	;
T_J6	T_J5	2700	0.375	0.95	0.15	4	0	0	1	;
T_J7	T_J6	2700	0.828	1.49	0.15	4	0	0	1	;
T_J8	T_J7	2700	0.405	0.99	0.15	4	0	0	1	;
T_J71	T_J8	2700	0.387	0.96	0.15	4	0	0	1	;
T_J9	T_J71	2700	0.79	1.45	0.15	4	0	0	1	;
T_J70	T_J9	2700	0.785	0.94	0.15	4	0	0	1	;
T_J11	T_J10	2700	1.182	1.92	0.15	4	0	0	1	;
T_J12	T_J11	2700	2.018	2.92	0.15	4	0	0	1	;
T_J13	T_J12	2700	0.385	0.96	0.15	4	0	0	1	;
T_J14	T_J13	2700	0.39	2.47	0.15	4	0	0	1	;
T_J15	T_J14	2700	0.428	1.01	0.15	4	0	0	1	;
T_J16	T_J15	2700	0.392	0.97	0.15	4	0	0	1	;
T_J17	T_J16	2700	1.64	2.47	0.15	4	0	0	1	;
T_J18	T_J17	2700	1.57	1.88	0.15	4	0	0	1	;
T_J20	T_J19	1500	0.409	1.48	0.15	4	0	0	1	;
T_J22	T_J21	1500	0.393	2.94	0.15	4	0	0	1	;
T_J23	T_J22	1500	0.423	3.02	0.15	4	0	0	1	;
T_J24	T_J23	1500	0.377	1.4	0.15	4	0	0	1	;
T_J25	T_J24	1500	0.262	1.13	0.15	4	0	0	1	;
T_J26	T_J25	1500	0.272	1.15	0.15	4	0	0	1	;
T_J27	T_J26	1500	0.297	1.21	0.15	4	0	0	1	;
T_J28	T_J27	2700	0.8	1.46	0.15	4	0	0	1	;
T_J29	T_J28	2700	1.585	2.4	0.15	4	0	0	1	;
T_J65	T_J64	1500	0.377	1.4	0.15	4	0	0	1	;
T_J63	T_J64	1500	0.408	2.98	0.15	4	0	0	1	;
T_J62	T_J63	1500	0.413	2.99	0.15	4	0	0	1	;
T_J61	T_J62	1500	0.37	1.39	0.15	4	0	0	1	;
T_J60	T_J61	1500	0.843	2.52	0.15	4	0	0	1	;
T_J39	T_J40	1500	0.838	2.51	0.15	4	0	0	1	;
T_J38	T_J39	1500	0.382	1.42	0.15	4	0	0	1	;
T_J37	T_J38	1500	0.392	1.44	0.15	4	0	0	1	;
T_J36	T_J37	1500	0.418	1.5	0.15	4	0	0	1	;
T_J35	T_J36	1500	0.38	1.41	0.15	4	0	0	1	;
T_J34	T_J35	1500	0.818	2.46	0.15	4	0	0	1	;
T_J46	T_J53	1500	0.835	2.5	0.15	4	0	0	1	;
T_J45	T_J46	1500	0.403	1.47	0.15	4	0	0	1	;
T_J44	T_J45	1500	0.383	1.42	0.15	4	0	0	1	;
T_J43	T_J44	1500	0.433	1.54	0.15	4	0	0	1	;
T_J42	T_J43	1500	0.352	1.34	0.15	4	0	0	1	;
T_J41	T_J42	1500	0.81	2.44	0.15	4	0	0	1	;
T_J52	T_J54	1500	0.815	2.46	0.15	4	0	0	1	;
T_J51	T_J52	1500	0.362	1.37	0.15	4	0	0	1	;
T_J50	T_J51	1500	0.408	1.48	0.15	4	0	0	1	;
T_J49	T_J50	1500	0.418	1.5	0.15	4	0	0	1	;
T_J48	T_J49	1500	0.367	1.38	0.15	4	0	0	1	;
T_J47	T_J48	1500	0.815	2.46	0.15	4	0	0	1	;
T_J66	T_J67	1500	0.818	2.46	0.15	4	0	0	1	;
T_J32	T_J33	2700	1.248	2.0	0.15	4	0	0	1	;
T_J31	T_J32	2700	2.013	2.42	0.15	4	0	0	1	;
T_J59	T_J68	2700	2.023	2.93	0.15	4	0	0	1	;
T_J58	T_J59	2700	0.352	0.92	0.15	4	0	0	1	;
T_J57	T_J58	2700	0.423	1.01	0.15	4	0	0	1	;
T_J56	T_J57	2700	0.433	1.02	0.15	4	0	0	1	;
T_J55	T_J56	2700	0.352	0.92	0.15	4	0	0	1	;
T_J1	T_J68	2700	3.633	4.36	0.15	4	0	0	1	;
T_J69	T_J1	2700	1.791	2.65	0.15	4	0	0	1	;
T_J11	T_J69	2700	2.224	3.17	0.15	4	0	0	1	;
T_J53	T_J54	1500	0.385	1.42	0.15	4	0	0	1	;
T_J40	T_J53	1500	0.415	1.5	0.15	4	0	0	1	;
T_J52	T_J59	2400	2.415	5.33	0.15	4	0	0	1	;
T_J46	T_J52	2400	0.393	1.29	0.15	4	0	0	1	;
T_J39	T_J46	2400	0.418	1.34	0.15	4	0	0	1	;
T_J2	T_J39	2400	0.403	1.31	0.15	4	0	0	1	;
T_J65	T_J2	2400	1.198	2.9	0.15	4	0	0	1	;
T_J20	T_J65	2400	1.278	3.06	0.15	4	0	0	1	;
T_J12	T_J20	2400	1.535	3.57	0.15	4	0	0	1	;
T_J76	T_J12	2400	0.428	1.36	0.15	4	0	0	1	;
T_J51	T_J58	1500	2.405	6.27	0.15	4	0	0	1	;
T_J45	T_J51	1500	0.403	1.47	0.15	4	0	0	1	;
T_J38	T_J45	1500	0.423	1.52	0.15	4	0	0	1	;
T_J3	T_J38	1500	0.392	2.94	0.15	4	0	0	1	;
T_J64	T_J3	1500	1.228	4.95	0.15	4	0	0	1	;
T_J21	T_J64	1500	0.775	2.36	0.15	4	0	0	1	;
T_J13	T_J21	1500	2.013	5.33	0.15	4	0	0	1	;
T_J75	T_J13	1500	0.443	1.56	0.15	4	0	0	1	;
T_J50	T_J57	2400	2.425	5.35	0.15	4	0	0	1	;
T_J44	T_J50	2400	0.403	1.31	0.15	4	0	0	1	;
T_J37	T_J44	2400	0.423	1.35	0.15	4	0	0	1	;
T_J4	T_J37	2400	0.392	2.78	0.15	4	0	0	1	;
T_J63	T_J4	2400	1.208	4.42	0.15	4	0	0	1	;
T_J22	T_J63	2400	0.815	3.63	0.15	4	0	0	1	;
T_J14	T_J22	2400	2.013	6.03	0.15	4	0	0	1	;
T_J74	T_J14	2400	0.413	2.83	0.15	4	0	0	1	;
T_J49	T_J56	1500	2.405	6.27	0.15	4	0	0	1	;
T_J43	T_J49	1500	0.393	1.44	0.15	4	0	0	1	;
T_J36	T_J43	1500	0.403	1.47	0.15	4	0	0	1	;
T_J5	T_J36	1500	0.393	2.94	0.15	4	0	0	1	;
T_J62	T_J5	1500	1.208	4.9	0.15	4	0	0	1	;
T_J23	T_J62	1500	0.815	3.96	0.15	4	0	0	1	;
T_J15	T_J23	1500	2.003	5.31	0.15	4	0	0	1	;
T_J73	T_J15	1500	0.423	3.02	0.15	4	0	0	1	;
T_J33	T_J55	2700	0.383	0.96	0.15	4	0	0	1	;
T_J67	T_J33	2400	1.157	2.81	0.15	4	0	0	1	;
T_J48	T_J67	2400	0.825	2.15	0.15	4	0	0	1	;
T_J42	T_J48	2400	0.415	1.33	0.15	4	0	0	1	;
T_J35	T_J42	2400	0.395	1.29	0.15	4	0	0	1	;
T_J6	T_J35	2400	0.413	1.33	0.15	4	0	0	1	;
T_J61	T_J6	2400	1.198	2.9	0.15	4	0	0	1	;
T_J24	T_J61	2400	0.79	2.08	0.15	4	0	0	1	;
T_J77	T_J24	2400	1.602	3.7	0.15	4	0	0	1	;
T_J72	T_J16	2400	0.388	1.28	0.15	4	0	0	1	;
T_J47	T_J66	1500	0.84	2.52	0.15	4	0	0	1	;
T_J41	T_J47	1500	0.418	1.5	0.15	4	0	0	1	;
T_J34	T_J41	1500	0.398	1.46	0.15	4	0	0	1	;
T_J60	T_J7	2700	1.198	1.94	0.15	4	0	0	1	;
T_J27	T_J60	2700	0.8	1.46	0.15	4	0	0	1	;
T_J8	T_J32	2700	3.23	4.38	0.15	4	0	0	1	;
T_J28	T_J30	2400	0.664	1.83	0.15	4	0	0	1	;
T_J17	T_J28	2700	2.013	2.92	0.15	4	0	0	1	;
T_J16	T_J77	2400	0.413	1.33	0.15	4	0	0	1	;
T_J80	T_J27	1500	1.615	4.38	0.15	4	0	0	1	;
T_J79	T_J26	1500	1.61	4.36	0.15	4	0	0	1	;
T_J78	T_J25	1500	1.61	4.36	0.15	4	0	0	1	;
T_J78	T_J77	1500	0.267	1.14	0.15	4	0	0	1	;
T_J79	T_J78	1500	0.282	1.18	0.15	4	0	0	1	;
T_J80	T_J79	1500	0.287	1.19	0.15	4	0	0	1	;
