<NUMBER OF ZONES> 2									
<NUMBER OF NODES> 3											
<FIRST THRU NODE> 1											
<NUMBER OF LINKS> 3											
<END OF METADATA>											


~ 	Init node 	Term node 	Capacity 	Length 	Free Flow Time 	Alpha	Beta	Speed limit 	Toll 	Type	;
   2  1  1000  10 1  1  1  55 0  1  ; 
   2  3  1000  5 1  1  1  55 0  1  ; 
   3  1  1000  5 1  1  1  55 0  1  ;       
