<NUMBER OF ZONES> 4									
<NUMBER OF NODES> 4											
<FIRST THRU NODE> 1											
<NUMBER OF LINKS> 5
<TOLL FACTOR> -1
<END OF METADATA>											


~ 	Init node 	Term node 	Capacity 	Length 	Free Flow Time 	Alpha	Beta	Speed limit 	Toll 	Type	;
   1  2  1  1  1  10 1  60 1 0  ;
   1  3  1  1  50 0.02  1  60 0  0  ;
   2  3  1  1  10 0.1   1  60 0  0  ;
   2  4  1  1  50 0.02  1  60 0  0  ;
   3  4  1  1  1  10 1  60 1 0  ;
