<NUMBER OF ZONES> 2									
<NUMBER OF NODES> 3											
<FIRST THRU NODE> 1											
<NUMBER OF LINKS> 3											
<END OF METADATA>											


~ 	Init node 	Term node 	Capacity 	Length 	Free Flow Time 	Alpha	Beta	Speed limit 	Toll 	Type	;
   1  2  1  10 10  0.1  1  55 0  1  ; 
   1  3  1  10 20  0.05  1  55 0  1  ; 
   3  2  1  0  0   1  1  55 0  1  ;       
