<NUMBER OF ZONES> 4									
<NUMBER OF NODES> 6											
<FIRST THRU NODE> 1											
<NUMBER OF LINKS> 7											
<END OF METADATA>											


~ 	Init node 	Term node 	Capacity 	Length 	Free Flow Time 	Alpha	Beta	Speed limit 	Toll 	Type	;
   1  3  1  10 10  0.001  1  55 0  1  ; 
   1  5  1  10 10  0.001  1  55 0  1  ; 
   2  4  1  10 10  0.001  1  55 0  1  ; 
   2  5  1  10 10  0.001  1  55 0  1  ; 
   5  6  1  10 10  0.001  1  55 0  1  ; 
   6  3  1  10 10  0.001  1  55 0  1  ; 
   6  4  1  10 10  0.001  1  55 0  1  ;                   
